180
 energy: -611.529761131254 gnorm: 1.067551431216 xtb: 6.4.1 (a3dbbd7)
C        -1.24960405998750    0.02993513581185    3.40707501342187
C        -0.40488505916727   -1.20057006372730    3.40474324032048
C         1.00666867202874   -0.73132815253973    3.39582039113240
C         0.98745829017861    0.75542034872256    3.40562293252611
C        -0.39642822054545    1.20584870707671    3.26876518305858
C         2.41098445246746   -2.65027383768293    0.64071746688766
C         3.15263635722468   -1.41626982366253    0.59812264647449
C         3.00962988280625   -0.70837559047578    1.83796008215858
C         2.00702039999035   -1.48002390152630    2.62216239961706
C         1.51799407424569   -2.57738976464699    1.79563768801718
C         3.27394337637810    1.45201326656181    0.60235389966779
C         2.39305585937336    2.67376713418738    0.58118581595479
C         1.61512198281984    2.67167815966572    1.86429396970868
C         2.02626397832958    1.45419587571992    2.62570434041083
C         2.92757880332324    0.70527367646389    1.79379851058399
C        -0.39239260798682    3.45820840921887    0.54729356575553
C        -1.73838212615165    3.03460796908931    0.59412234724675
C        -1.98489157173547    2.32965027547500    1.81909602557489
C        -0.78628725491629    2.26431765695944    2.55160669553851
C         0.20346539017714    3.11725446080534    1.86333741510737
C        -3.36063681496637    0.74217960908837    0.63209178923402
C        -3.49680354586440   -0.72030899063743    0.60083645757579
C        -2.87354944469065   -1.21445551802745    1.87276427705523
C        -2.50803191316543    0.02301725767719    2.62969067919593
C        -2.78899103216337    1.18788643854378    1.76042830213760
C        -1.72235030889602   -2.96538086390551    0.62893759137153
C        -0.38452740730995   -3.57585425048078    0.62174421868405
C         0.28002216362695   -2.98870994823290    1.79482381013814
C        -0.77267557209238   -2.39997012881058    2.62980171196257
C        -1.93069465091546   -2.30190136282457    1.74279990626027
C        -0.24902729786764   -3.06366022399812   -1.84282700709381
C         0.73403533196595   -2.29736745474459   -2.56580873065276
C         1.99035461302405   -2.35873780058977   -1.87177104349361
C         1.75395264109767   -3.11343810917800   -0.60651662227446
C         0.35707473869394   -3.45112771256274   -0.59829824777641
C         2.87697869179168   -1.17689740653605   -1.87635955612268
C         2.47695746781059    0.03988633740044   -2.65957555814334
C         2.78779482599692    1.18873038795034   -1.77259076673825
C         3.35342926615064    0.73940735168589   -0.64888398321664
C         3.49709290883633   -0.72040245719884   -0.60138251349347
C         1.95339206979154    2.32959750718735   -1.82334541474544
C         0.74758382603288    2.33804291858864   -2.59129522595111
C        -0.23926333951640    3.03376871311546   -1.83921436954999
C         0.35487012508829    3.46684455205755   -0.60596595446498
C         1.70157140591936    3.01632863189963   -0.65146279238424
C        -1.55923790939344    2.61154801263560   -1.77795662655780
C        -2.00096336504914    1.47283261623524   -2.63412538486566
C        -2.92499779834492    0.71968220015074   -1.80677261542802
C        -3.26411427763267    1.47946966623934   -0.61530831042564
C        -2.29504278216476    2.61403989925174   -0.60301689561562
C        -3.01931233299869   -0.70225648579362   -1.83715950679784
C        -2.00602847488751   -1.47436690976159   -2.61939639143436
C        -1.58018590454593   -2.58164686619270   -1.80292018932394
C        -2.40147386630421   -2.65548748483552   -0.60737807469022
C        -3.16624666517815   -1.41970523603391   -0.59252635331913
C        -1.00496506127578   -0.70257352542158   -3.39881278889607
C        -0.94368956130890    0.75341459707123   -3.30857015384184
C         0.37563779794123    1.16903778578948   -3.29583789340122
C         1.19690511464510    0.05086016994787   -3.31557313743885
C         0.40989519716921   -1.17976456272307   -3.39118088131210
C        -1.79566672980104    0.11967557996438    4.82807415953053
F        -1.03986183460546    0.45734201404470    5.89692219698784
F        -2.44346083040939   -0.70895191976911    5.46762601810931
F        -2.24852455024367    1.30770968737780    5.22231976084189
C        -0.57457127180490   -1.74522110124494    4.83222425464045
F        -0.53068961336754   -1.14638448502042    5.95189805458483
F        -1.64413289270775   -2.23362192641757    5.39924831061785
F         0.01860653645895   -2.71800264941476    5.40535726788732
C         1.48263246019935   -1.06884366147846    4.82105477943959
F         1.10660231390068   -0.63720611316363    5.94833092313516
F         1.61245601439496   -2.18251616834365    5.39026494861868
F         2.69408360597022   -0.74424172043524    5.51954966506079
C         1.32820203527254    1.15152777985284    4.83515158364110
F         0.57054920768836    0.96862618352243    5.86716120538427
F         2.35865104751061    0.93675049157188    5.45780923478860
F         0.98115417251264    2.41750508055379    5.17527974058538
C         3.43091589561588   -3.76158653329687    0.92308028698971
F         4.17345185341445   -3.68556676098617    1.91058416692138
F         4.52115013861678   -3.70806981585467    0.21034074127268
F         2.91597246419028   -4.85630312094951    1.41639885297669
C         4.35345273781418   -0.93625495698262    2.59320456101320
F         4.83921039311343   -2.08505523202274    2.63272572970172
F         5.40030874094946   -0.46649601659284    2.04887195817312
F         4.52500069285946   -0.32549546717627    3.70174207286848
C         2.79864315108361   -2.18277118072963    3.69551583867127
F         3.77756256995417   -3.13507740100622    3.53665715139995
F         3.62799951675091   -1.62414975884665    4.43025551762529
F         2.23986285758153   -3.29598040848031    4.21002646109301
C         4.69618566158474    1.98525183174552    0.82240967486947
F         5.02335651351519    2.41392865737502    1.95787657940032
F         5.18976542638086    2.63639900967230   -0.18019902170425
F         5.61606406363264    1.10176941966061    0.92548888534346
C         3.35888473461285    3.83984097962230    0.70828570953096
F         4.30461354149945    4.00468015091989    1.49730623308705
F         4.10726767864849    4.06845002843278   -0.35382209728936
F         2.79365859012526    5.01991938065571    0.59850285413277
C         2.26434346826393    3.80213751807570    2.67545267152981
F         3.47349019224229    3.96217456500913    3.08009701460201
F         2.38883246881957    5.03766411430266    2.30437010825385
F         1.98892639790862    4.21091542180159    3.86013293916911
C         2.94540433734885    2.00478963011054    3.73355286191377
F         4.13710683374706    2.46491960608964    3.47733206649570
F         2.65915664283539    2.79740262772995    4.63548564944345
F         3.71904686701598    1.16254473705484    4.37768044203397
C         0.19802878914128    4.42787393280192    2.64601575034963
F        -0.99395510227746    4.96412987598829    2.70935466941975
F         0.68331254502458    5.44159979669891    1.91674949137458
F         0.22194422969122    4.22909088767131    3.95532881610666
C        -5.00834808851458   -1.00652182548677    0.78841166644753
F        -5.62429859036575   -0.20648767212119    1.60683402789285
F        -5.75968372489981   -0.63933239088377   -0.17605994102987
F        -5.34083345122313   -2.24939514604189    0.76746248688237
C        -4.00997636813802   -1.84952273468825    2.64015480430000
F        -5.06227672300207   -1.30568104517346    2.97631359578943
F        -4.48660277373631   -2.97100430418417    2.17507845580846
F        -3.75028996865860   -2.39543097422058    3.77717626297345
C        -3.57093538499702    0.12999909976951    3.70787809896758
F        -4.87120755540898    0.48187393246652    3.30538736683464
F        -3.91224379790579   -0.77673915984223    4.48861077357041
F        -3.73443981142880    1.25200993483669    4.32484733102952
C        -0.52952313669903   -5.06367520422526    0.84535500018655
F        -1.24440650159869   -5.42725594257296    1.80541058736598
F        -1.13130681340609   -5.67675472091685   -0.11033362716148
F         0.60310897067253   -5.64107324719776    1.06758404987267
C        -1.10528588130482   -3.45337533596284    3.69127562947436
F        -1.55257846747365   -4.57036772242246    3.31685370642913
F        -0.00596205496767   -4.01509751249391    4.17766183053029
F        -2.27496247462649   -3.32253922374150    4.24337883720191
C        -0.41612396113120   -4.39526818048954   -2.64784615180233
F         0.59115116749108   -5.08556624341817   -2.87106982489156
F        -0.80192289619250   -4.24975895401051   -3.85513670411948
F        -1.17898104374281   -5.26227360717892   -2.10523204315245
C         2.81541302662914   -3.33355572326490   -2.71034825713244
F         2.32018605306767   -4.49019205879103   -3.18159710810819
F         2.81202948203009   -3.20638626465140   -4.06453970352819
F         3.90270966070644   -3.88965090915134   -2.47267788606054
C         2.44411212624424   -4.45219747406299   -0.82242183187842
F         2.03807762471931   -5.28619666105180   -1.73405065035437
F         3.65441486033630   -4.72237126123770   -0.98052940263739
F         2.13608867923100   -5.47924290741305   -0.08797550871494
C         4.07310675424940   -1.70619460956012   -2.66139222045925
F         5.26727383505466   -1.10882409431839   -3.06296136411760
F         4.10815039969203   -2.04820289048562   -3.86931015796393
F         4.94684833589398   -2.55485683051121   -2.27423821130154
C         3.48161390732070    0.11162578803450   -3.80455925055998
F         4.66259425831867    0.54506977997457   -3.40402242132181
F         3.28849146528606   -0.76060465487739   -4.74555179491659
F         3.30290400226118    1.18098881841939   -4.55112096972181
C         5.00540989074488   -0.99533343261243   -0.77943006806084
F         5.57875150544474   -0.11383698092212   -1.59688538334015
F         5.34173484058104   -2.23683830480368   -0.63824479159799
F         5.76900980525900   -0.64017032819935    0.16476884167653
C        -2.81488605137204    2.08994340319127   -3.77608640902411
F        -3.75920594041475    2.85436249049977   -3.41959783342945
F        -2.06748317493551    2.86761995264464   -4.53119166305611
F        -3.39118571008693    1.22935983991628   -4.53310772746193
C        -4.64304320276865    2.08471821876275   -0.82662230108792
F        -4.74174406791687    2.85164338395279   -1.83369830352066
F        -5.57704694520198    1.22043450215621   -0.98285989353329
F        -4.97677942011160    2.86925081910523    0.17781739608822
C        -4.34629810058137   -0.93348450188326   -2.60501823235758
F        -4.84729164801244   -2.09466255571359   -2.61742375245385
F        -4.46501242060899   -0.29585040806280   -3.72545809797512
F        -5.39736550913726   -0.45538789398070   -2.05904376993670
C        -2.81461649538307   -2.15125874379201   -3.73519697205344
F        -3.72071435364839   -3.08751036458783   -3.49188563763150
F        -3.56658662396196   -1.58670284616653   -4.58680292725260
F        -2.28803076634591   -3.17834551979447   -4.38063082836055
C        -3.39155214909180   -3.79897057757082   -0.81064458889256
F        -4.14820055483028   -3.72556967972319   -1.80037632495623
F        -2.84694114122279   -4.94843049529418   -0.97627071671732
F        -4.23897876763029   -3.91070908686982    0.16745035788121
C        -1.49475764596091   -0.96849232340923   -4.78688084963956
F        -0.84898457048832   -0.10537572310448   -5.88408953818139
F        -2.46699572311450   -0.31854611213400   -5.29313448907236
F        -1.43506498146137   -2.00381085991145   -5.47424769190410
C         0.62938324853003   -1.73583501076958   -4.79844120076715
F         0.65542238455251   -0.82473605733328   -5.74386441339868
F         0.07508292431325   -2.87295707998646   -5.06631698346194
F         1.80981498318118   -2.06130448220255   -5.11550979793347
