63
 energy: -142.119093137856 gnorm: 0.000145687085 xtb: 6.4.1 (a3dbbd7)
C        -1.30947082800458    0.00798812575542    3.56300245339956
C        -0.37350469189294   -1.15137666921127    3.26609401448558
C         0.95261753748074   -0.70862928750739    3.26942132019220
C         0.96157442448896    0.71482612612348    3.25104386352820
C        -0.39331479763137    1.17674655327052    3.27804436131254
C         2.30965160988975   -2.56704896983177    0.58193010728615
C         3.15804264205248   -1.39892969836927    0.58259685111176
C         2.95336829060064   -0.69123796756791    1.80281545947957
C         2.07880855749797   -1.51206670639745    2.72366327376882
C         1.57617824567051   -2.59366495380685    1.79931255949678
C         3.17118248536888    1.40857620456944    0.57583430056664
C         2.32697396818081    2.57573741467440    0.57727105152778
C         1.56933894937653    2.57321001321066    1.80425505179868
C         1.94336688968963    1.42342133301138    2.55887364252290
C         2.93580163648127    0.68445019307757    1.79648969159563
C        -0.36684505061235    3.44082614822088    0.57723097919177
C        -1.73890697444352    2.99952694389934    0.57160283712756
C        -1.98840114692614    2.28591022695971    1.79197386528064
C        -0.74671424486342    2.28628444972623    2.56287838345596
C         0.24053384430743    3.00172403845234    1.80201466602372
C        -3.37000079536656    0.72463245976531    0.56965787591775
C        -3.36434847046160   -0.71563175558906    0.57244935773088
C        -2.78318332436457   -1.15877479420314    1.79219613579868
C        -2.63902791388959    0.00734328277693    2.74741469598430
C        -2.78922927007488    1.17487787118179    1.79244580115059
C        -1.72667247825015   -2.98561458096142    0.56733146410546
C        -0.35957471767182   -3.43057582854158    0.56841759427968
C         0.25387375165941   -2.98895948160443    1.79270649691892
C        -0.74630987115313   -2.28644159891877    2.56626437927763
C        -1.96634310483100   -2.26778676720817    1.79286670528633
C        -0.24302477152096   -3.00850254603995   -1.84508682640104
C         0.74908752985559   -2.28763697462259   -2.59928713233454
C         1.97242843513240   -2.28528586600846   -1.83402241941528
C         1.73291085736112   -3.00465802038402   -0.61083983812957
C         0.36872992755251   -3.44761237948054   -0.61480734955574
C         2.78875709719598   -1.16250717586021   -1.83336739353343
C         2.41373429665264    0.00229836834552   -2.59349301273499
C         2.79338135269559    1.16784388878009   -1.83473966375070
C         3.40397935551724    0.72012112150318   -0.60902331477547
C         3.39900129747374   -0.71445706794253   -0.60626927058011
C         1.97380142302292    2.28880850220792   -1.83019278213799
C         0.74969618753895    2.29005617631916   -2.58964213955321
C        -0.24349411153371    3.00903262347129   -1.83254178262280
C         0.36567046953886    3.45128078253926   -0.60448431534352
C         1.73731011435510    3.00610449251211   -0.60299971757647
C        -1.56532067407641    2.58381195469244   -1.84131787505887
C        -1.94159599354852    1.41790673942857   -2.60151623605674
C        -2.93239941186242    0.69677631652695   -1.84622321735128
C        -3.16310628309127    1.41861240744516   -0.61772975706243
C        -2.32588467404518    2.58144165323983   -0.61824490394426
C        -2.93137601236950   -0.69041188925081   -1.84417569900734
C        -1.94066404646885   -1.41320556286496   -2.60445772476968
C        -1.56319032820378   -2.57891949595358   -1.84684745040622
C        -2.31903903148736   -2.57218338456886   -0.61936189120459
C        -3.15996879316895   -1.41101021503325   -0.61887163477415
C        -0.98372272762580   -0.71785517933333   -3.33299318474591
C        -0.98359910403117    0.72381955959235   -3.33125366858678
C         0.38629218476434    1.16795805492066   -3.32543765676894
C         1.23351721365573    0.00319139423745   -3.32591629105419
C         0.38619438197397   -1.16350348549199   -3.32988058400441
Cl       -1.60034705799613   -0.01622609092007    5.34870555454971
Cl       -4.10105724457674    0.00503970820148    3.81733717654062
Cl        3.05980426191849   -2.22176452337273    4.10010117613602
