156
 energy: -520.352745047447 gnorm: 0.000169154179 xtb: 6.4.1 (a3dbbd7)
C        -1.31397066805031    0.02271945655396    3.71324123432098
C        -0.41060148460536   -1.32586204678103    3.74764903426127
C         1.12376820541282   -0.82950518287298    3.59823753773640
C         1.10634350678970    0.74038290448148    3.52573628835923
C        -0.32670847977538    1.04863388611580    3.21683183019417
C         2.55520387133636   -2.87730490663440    0.67389235264543
C         3.55807844275101   -1.63098864997838    0.69730861521607
C         2.84592533481667   -0.72234444644625    1.66278480878164
C         1.77247938183835   -1.39411759817395    2.34607591773560
C         1.55400042491154   -2.61652267512375    1.81200437839839
C         3.60324160739549    1.58858895360186    0.72808121579782
C         2.58961857240164    2.83213583488577    0.67385490871369
C         1.61074003474287    2.56460657115729    1.82168707240893
C         1.91130737294063    1.32273532230441    2.40185817760281
C         2.86128730149174    0.65080213989513    1.66084912335435
C        -0.37770857692443    3.73620114759276    0.73156038373572
C        -1.71771969954576    3.02818388476054    0.66004816978715
C        -1.90303763158654    2.19180893150638    1.75928860828132
C        -0.65836034251400    2.14168260070198    2.50880852242154
C         0.30625981960423    2.99547616589928    1.86308542737289
C        -3.64849365644329    0.79758769171347    0.67770473859925
C        -3.30342288468809   -0.67682808658152    0.67455326754488
C        -2.71878438827581   -1.08328124069711    1.80971074549699
C        -2.65457958096509    0.01552655468508    2.85631657729829
C        -2.85257544208896    1.20754339245536    1.91124975375227
C        -1.70355823698626   -2.91908386283867    0.62660978882363
C        -0.44062422536687   -3.73655783049188    0.65776491792153
C         0.24205202153049   -3.35286117733826    2.04311490401650
C        -0.75425774294350   -2.36702427659521    2.68108975130598
C        -2.09665916114889   -2.43929146650038    1.99670993853107
C        -0.22970084418496   -2.81012395810405   -1.71864868006926
C         0.76476520091744   -2.07950956765704   -2.45631496691574
C         1.87771506989991   -2.07335837361700   -1.69376967804738
C         1.64977791702419   -2.81021060128635   -0.49230401129383
C         0.37727746557436   -3.27193296336170   -0.49528969878153
C         3.06400159823697   -1.21536708136091   -1.88863910500355
C         2.57929522196367   -0.01382612642843   -2.63369590987294
C         3.09465590055041    1.22568612811927   -1.93276882686186
C         3.90088583712946    0.75733089018387   -0.62116337935081
C         3.55382777117553   -0.74088865113688   -0.53813921558743
C         1.86153119888205    1.97024502724848   -1.58561988964810
C         0.67623260221048    1.94249746290455   -2.34278350494663
C        -0.29404282559437    2.76573278010433   -1.64018689319967
C         0.35948350739681    3.27863193885542   -0.48427662334227
C         1.65433128062898    2.75473969527025   -0.47469805327462
C        -1.62060466978611    2.61386631446189   -1.82358992506261
C        -2.14886669072671    1.55899705267937   -2.77967426001896
C        -2.76845661462784    0.69597791020497   -1.68415806794632
C        -3.10128257106228    1.45251199691251   -0.56114343075886
C        -2.52484074611215    2.84351949223626   -0.60645749345256
C        -2.89347078763035   -0.65728739661685   -1.78247643943115
C        -2.05628568022917   -1.46267818794927   -2.75270393562272
C        -1.53357450667139   -2.47955739830437   -1.76613389851394
C        -2.25963405433821   -2.49786660857516   -0.51888534560742
C        -3.35546861099817   -1.47471166003295   -0.58901661498847
C        -0.94947521072980   -0.66111486616753   -3.41310736024352
C        -1.07701470463562    0.80463777163899   -3.70728945979389
C         0.36489494347045    1.03797344843090   -3.29294409184576
C         1.42503654377336   -0.00558929336093   -3.66269269453738
C         0.44677657496783   -1.25517202044526   -3.65526779138032
C        -1.65674839047147    0.69993267831069    5.11662518789961
F        -0.55412647585379    0.93455307468209    5.81312077533683
F        -2.48209625813377    0.08185549986534    5.93335315220915
F        -2.16640281455060    1.90663571070083    4.84918083519718
C        -0.67678291553161   -2.09533798514756    5.10838503678624
F        -0.54090953002715   -1.39366060906111    6.21780769524565
F        -1.92559822674349   -2.54665568647610    5.09531876854859
F         0.13136630386824   -3.13992206374580    5.21015961614521
C         2.20042591647576   -1.29842941983737    4.67101374771746
F         1.81598663785759   -1.30863769649723    5.92801723303644
F         2.68177264083355   -2.50412111360404    4.40595863806223
F         3.24582844654433   -0.47142670413408    4.55902028733749
C         1.69260595711029    1.63080817354084    4.74393365407304
F         1.75200055842704    1.07937337557233    5.93461101208050
F         2.93265293147664    2.02612620452047    4.46061910080457
F         0.95702171820345    2.73745037962663    4.82416313221640
C         3.20019519172004   -4.31621467422050    0.63532813096519
F         3.36288881046536   -4.87360255066106    1.82055858884368
F         4.35907579210372   -4.29749712724205   -0.01047045967343
F         2.41763977052303   -5.14125247962645   -0.06240610349474
C         4.96752481097900   -2.05841220277700    1.29110152616057
F         4.82529305975004   -3.06493567103781    2.14862529461809
F         5.85576098556605   -2.39662142720145    0.37414954003924
F         5.49997123951549   -1.08420460967559    2.00813091613208
C         4.82122906580606    2.05680695866712    1.65863661766279
F         4.38199875236857    3.03076928501541    2.45937776751651
F         5.90739841272519    2.49978839105592    1.06295770297175
F         5.19396931740006    1.10218443069474    2.49391716578332
C         3.19101159721236    4.29496158461912    0.66907399787007
F         3.01318228490106    4.90885526520794    1.82800494765768
F         4.47528869657705    4.33241889380224    0.35806647862819
F         2.57011705794654    5.03200607691915   -0.25823059118184
C        -0.48654692417716    5.27653305332265    0.93677822795058
F        -1.35850822099351    5.55530722327948    1.89814092868599
F        -0.87288846151593    5.87281980985362   -0.18753992444572
F         0.67452497893434    5.80498345462826    1.29529582414412
C        -5.22008783640850    1.06913123161214    0.66901064972748
F        -5.94309590437468   -0.01976208922566    0.87291967342061
F        -5.59732607813442    1.51258329099779   -0.52692026691580
F        -5.53575608693580    1.97962539144077    1.57603514698033
C        -3.96871664218061   -0.12999311506920    3.73615850810997
F        -5.00174752158460   -0.38407337972901    2.94568123427694
F        -3.90694577872475   -1.13520408905816    4.59379110028535
F        -4.28572585791070    0.97668083462275    4.39008292687817
C        -0.90247579069250   -5.22333616282070    0.33865227156498
F        -1.46932093863158   -5.81397089350115    1.37837193551515
F        -1.81917273935685   -5.17208234997385   -0.63215565609004
F         0.06400396151857   -5.99241009334366   -0.12147798072910
C         0.55126707950099   -4.65762689110986    2.90486281731868
F        -0.49494125063021   -5.05478364268818    3.60735901040291
F         0.91766488522538   -5.66063331413560    2.11570964665765
F         1.55508921253532   -4.47246151248185    3.74264025025170
C        -3.21093337703809   -3.47931773509428    2.54424862678288
F        -2.79359362517316   -4.23297695961544    3.53446344919455
F        -3.56198142501916   -4.28616016791819    1.54232596099567
F        -4.30861607300735   -2.85253134639602    2.92389059146630
C         4.12623284742760   -2.13876775523934   -2.70633593140068
F         4.46138522317917   -1.57847206904148   -3.85064953966384
F         3.56179340383193   -3.31157597506502   -2.97958897730474
F         5.21270690425263   -2.38774311543133   -2.00866729640579
C         3.84891625919228    2.30163847092627   -2.82579791807497
F         4.93929126548325    1.91207081753135   -3.44440455669512
F         3.00559929779971    2.75451023385984   -3.75228903294750
F         4.13506514573757    3.34921761105970   -2.05227352352492
C         5.44413573709593    0.77097465675403   -0.97042761772215
F         5.65228402798741    0.02637189621548   -2.05505069375382
F         5.94716298473824    1.96482047511514   -1.22374838645542
F         6.14939197950603    0.23153744786219    0.01099779399686
C        -3.41480749390463    2.03249065901554   -3.58040234832901
F        -4.29522826397972    2.58834470761953   -2.75340417203237
F        -3.16646882647108    2.92766856976168   -4.51703587730935
F        -4.03704495725376    0.97937488878795   -4.10434070268934
C        -3.49024826618750    4.10146199454228   -0.74926114674826
F        -4.77165639818466    3.80689182118384   -0.65975295683627
F        -3.26138891634324    4.72438292078181   -1.89894433303649
F        -3.24788227757298    4.97359525841532    0.22695087755111
C        -2.95199625043870   -2.14411151906225   -3.88931633180267
F        -2.90855558946513   -3.46240186357258   -3.80378272376216
F        -4.21335667934283   -1.75704548667754   -3.78045565959895
F        -2.52847306047021   -1.79226059875493   -5.09752850039562
C        -4.75344372999481   -2.14420252996875   -0.82681728319682
F        -4.63345192196295   -3.18976548869758   -1.63696975953594
F        -5.60475479183893   -1.29004960238982   -1.37527691574879
F        -5.26397715207136   -2.58077218515531    0.31625428271354
C        -1.22731127277156    1.17742664210784   -5.23349900320250
F        -0.37021885824022    0.44401467614593   -5.93648076322487
F        -2.40623853314418    0.95428934849785   -5.78380811602085
F        -0.90009994661767    2.45490508085952   -5.40643905407734
C         2.12627833238566    0.37485266837454   -5.05593213730220
F         1.95080469777930   -0.51020715721386   -6.01391471914493
F         1.70228751909263    1.55285131759329   -5.49472406101253
F         3.44298995550073    0.48475681193207   -4.89484006089535
C         0.49174398031404   -2.32403470087360   -4.82237158387738
F         0.01017059205956   -1.96183550008170   -5.99124182612447
F        -0.23838902102681   -3.37665478156983   -4.43248196806808
F         1.74128684727299   -2.75143419359772   -4.97442683238495
