156
 energy: -520.345543039975 gnorm: 0.000146221144 xtb: 6.4.1 (a3dbbd7)
C        -1.25381447067543    0.04179483571395    3.62047767644397
C        -0.35389795410610   -1.27895498879745    3.77347636325503
C         1.19078912066755   -0.78635443172397    3.71989660421598
C         1.11520632910126    0.82316385768545    3.60716958476503
C        -0.30349093974045    1.14184216630984    3.20322540517918
C         2.58109885528007   -2.91208586566619    0.66413185645067
C         3.45290651117127   -1.57817329221204    0.69502446265823
C         2.83712961162437   -0.76183566759634    1.82160422126732
C         1.90823621681742   -1.42870099012763    2.51412946847265
C         1.78557636806248   -2.91683285072923    2.06577448815200
C         3.17768417505363    1.48170341077364    0.71848117915740
C         2.71335749101766    2.95040907795749    0.75229541231221
C         1.88461055113392    2.94319111872449    2.14831019236392
C         2.04894936517439    1.48388800152757    2.61508433016350
C         3.20878054859907    0.72041179530348    2.02947896372021
C        -0.18298564266409    3.33053948075220    0.62573249781574
C        -1.47531172728823    2.92634818252937    0.54269034386856
C        -1.98726794159856    2.46654264951541    1.89920725448586
C        -0.63831152596730    2.27755789671772    2.59128289456313
C         0.34184428705103    3.33892989761102    2.04349562043857
C        -3.17229932348532    0.73890586203495    0.57496870941475
C        -3.47602350444249   -0.73655201167694    0.64203253215346
C        -2.68675089392436   -1.13680164194121    1.87211872469697
C        -2.27913854815967   -0.01834235309459    2.53013701822691
C        -2.58308156287356    1.12055651914259    1.73558513427055
C        -1.62331314009961   -2.96161591438367    0.63821325918932
C        -0.34726543356860   -3.42069504539936    0.62845967814258
C         0.26593331730604   -3.30457913212838    2.01509985303436
C        -0.64114641381993   -2.24215003038211    2.62442260802483
C        -1.79635857060734   -2.23065396061503    1.87448382033739
C        -0.25308695295838   -2.98905202947402   -1.78612400969994
C         0.74961246061673   -2.25006560745347   -2.52672513143525
C         1.89310857651730   -2.19921196153759   -1.73853253773749
C         1.66157908319093   -2.90963674476927   -0.52101089218793
C         0.39728171288950   -3.43262775760429   -0.55266970596268
C         2.74159524902739   -1.06477102418960   -1.68270383039685
C         2.55356486601657    0.08099548971934   -2.64929342120569
C         2.77287637226269    1.25383676940651   -1.71539438726447
C         3.62465308714204    0.80511013708163   -0.53437536067357
C         3.31513671853078   -0.69380478549951   -0.52446886044307
C         2.01800947536987    2.34380631416298   -1.72710328228277
C         0.87887046708634    2.52894477991061   -2.74181085477601
C        -0.16737490546915    3.18223230511151   -1.89614156867482
C         0.45448010901136    3.79717504700842   -0.64221247215536
C         2.00208119241678    3.44457704048851   -0.66213249525786
C        -1.65539834973947    2.92597089625415   -2.08052522516336
C        -2.15889223632495    1.58716337857279   -2.89879464358339
C        -2.75187742083756    0.70796730994637   -1.81129502206094
C        -2.90860279598129    1.42321260349536   -0.63596879364390
C        -2.11999687961845    2.58936687086546   -0.66559444574000
C        -2.79587473053939   -0.70370916894658   -1.76517697329921
C        -2.09378401708039   -1.57905736745842   -2.79000690722379
C        -1.54705084307878   -2.63926356115826   -1.83345849603701
C        -2.44583903478551   -2.78150879063904   -0.61308036500352
C        -3.04758139542640   -1.40044398742220   -0.61302494698017
C        -0.99288632777879   -0.72281734246383   -3.34538523771502
C        -1.03858538821323    0.79271897383248   -3.61348855619032
C         0.36291866741324    1.18676185302810   -3.16365050957911
C         1.13782742100157    0.10183931925845   -3.11732803527422
C         0.31184528480567   -1.08814093039946   -3.20650740798271
C        -2.14609618789718    0.52985477391239    4.84219132135361
F        -1.54879641043344    0.75205073900930    5.99160827406300
F        -3.15779157481245   -0.29952165467802    5.05156663482852
F        -2.68141311710836    1.69907333630847    4.48015252760604
C        -0.86316687326076   -2.11370135052860    5.01070704950813
F        -0.86523639282418   -1.50705171754788    6.17981272423223
F        -2.12690676327904   -2.47458598355249    4.74882117200538
F        -0.18928922828703   -3.24429200788079    5.14120975863801
C         2.16870216671467   -1.18315061251979    4.94013943493145
F         1.56914599039464   -1.75774691083823    5.95967275625909
F         3.13152729973804   -1.99943002307533    4.53330917038303
F         2.87274501441431   -0.15768875833450    5.39828031199592
C         1.15678483874635    1.49495512127916    5.10351735341737
F         0.83095154859886    0.59419019463476    6.01974737192556
F         2.29107650911652    2.06359392274504    5.43267161145087
F         0.21895292730401    2.42968863094131    5.20238714175905
C         3.34889373884726   -4.24768779110428    0.26640730209037
F         4.35431114093744   -4.65701125039560    1.00698742961100
F         3.81495018525312   -4.11049145043880   -0.98001948830645
F         2.46333742907496   -5.24421700865784    0.20134751830238
C         4.99702372501764   -1.87748528887963    0.82955636667231
F         5.36451878238609   -2.60229229010992    1.86131089256170
F         5.43164669752847   -2.48694090363468   -0.26882577384712
F         5.66503732793003   -0.73449752618545    0.91779588431149
C         2.50131830930097   -3.93484931245705    3.04106369933201
F         3.79673045567339   -3.73439166034925    3.16818271600490
F         2.36289936540055   -5.18097043092537    2.59546635479068
F         1.97485998143175   -3.91303008674434    4.25752176587794
C         4.11875850361526    3.71855867558913    0.84424046037368
F         4.82140593910461    3.29907580366082    1.87934222152270
F         4.83497493388689    3.38691713455746   -0.22211736631242
F         4.13289602062362    5.03330544294134    0.89520798986083
C         2.53308538533047    3.92428487060006    3.24514768833716
F         3.64274656285899    3.48030204822583    3.79507277501970
F         2.80546676927786    5.11567739868076    2.74136137352778
F         1.70484516103368    4.10214280355000    4.26543882679289
C         4.54342567289423    0.67517315581299    2.94392435919938
F         4.34976335792885    1.30287798900322    4.09069873918748
F         5.62815599225665    1.16869264095496    2.38304342563156
F         4.81483449663793   -0.59435801418839    3.27231218416895
C        -3.17980791165809    3.39968326574589    2.40418584148217
F        -3.49745136927775    4.26898647360304    1.44871881747639
F        -4.27068394700586    2.65061795425164    2.59137555271553
F        -2.97707819473634    4.05728696693720    3.52255493328513
C        -0.18830685339710    4.67456877605703    2.80968882782899
F        -1.24222343189336    5.13722489917643    2.13886348143316
F         0.60777365736417    5.71107292647720    2.94936703320672
F        -0.63209831720286    4.35991337567037    4.01756101690152
C        -5.01603451383813   -0.90236701835613    0.88454145125481
F        -5.38104972773924   -0.29172371589353    2.00115870290858
F        -5.68964952248385   -0.36613816324593   -0.12608984485176
F        -5.35609552236163   -2.17734461883264    0.97570331080168
C        -0.22387286798998   -4.76814211601107    2.51149592419851
F        -1.55840754691348   -4.76449820146038    2.55502112919252
F         0.12433310734708   -5.67776517475455    1.60555028473086
F         0.15919499681432   -5.21230677454262    3.68520141337281
C         3.45957867631347   -0.03780153304885   -3.91930787060569
F         4.65774373397259   -0.53708213885340   -3.66619583118970
F         2.87738190902712   -0.85819803080884   -4.79409988613971
F         3.61802306603411    1.14150867906170   -4.50260355051257
C         5.17139884206930    0.98445334495817   -1.02675482139622
F         5.62321897442965   -0.18405538802156   -1.46149447049314
F         5.19622742942240    1.80896583993597   -2.06779776187418
F         6.01614011736888    1.41378652849060   -0.12056187908322
C         1.38166218128499    3.23259427987230   -4.10845220609192
F         0.62467380340274    4.26440547113477   -4.42798281309957
F         2.65591853028486    3.58374811183413   -4.06106286195121
F         1.32097151044314    2.36187630104686   -5.11231548362536
C         0.08090444565615    5.37890763708014   -0.47544879321656
F         0.35622477445445    6.22757664470325   -1.43313069909525
F        -1.22130496605126    5.48739383350312   -0.25520822987614
F         0.72861838180789    5.80359600178824    0.60345315995097
C         2.67908020690697    4.68398914561743   -1.40724043854467
F         1.89701029203886    4.98318116807191   -2.44764255976897
F         3.86144719785803    4.44256614379431   -1.93748777540582
F         2.74949974499849    5.80208708122929   -0.70812244627790
C        -2.35182683397481    4.25670168657089   -2.60686891101602
F        -3.35263094641799    4.59707820877333   -1.80469760664833
F        -2.80997903403451    4.21039484321756   -3.84474612604206
F        -1.46792283873326    5.25037891346610   -2.62412317651733
C        -3.47245678559400    1.76610305155272   -3.77099709191625
F        -4.37752326089627    2.43132003803731   -3.05659678396224
F        -3.39973527835872    2.31319067517702   -4.96545410873665
F        -3.97750012027881    0.54092451828875   -3.97534792895562
C        -3.03581350508898   -2.27275690279869   -3.84418100609257
F        -2.89450331875985   -3.59963789998591   -3.77178011467882
F        -4.31195989773152   -1.99818821753915   -3.62170105629149
F        -2.73363661463284   -1.92892774884331   -5.08398189565031
C        -3.44400716337902   -3.98433976331341   -0.72567369509722
F        -4.47770633591360   -3.69030768185081   -1.50314404319790
F        -2.82088481082855   -5.04239550791569   -1.23325562961132
F        -3.91205721991907   -4.32723482196747    0.46744122493907
C        -1.05687180859444    0.93897142830573   -5.18596465746094
F        -0.00835744932617    0.31932572755070   -5.71479194890299
F        -2.12887831810810    0.38994555307751   -5.73172283203735
F        -1.02708364045510    2.21561976369961   -5.54673991916519
