156
 energy: -520.375885697568 gnorm: 0.000241027907 xtb: 6.4.1 (a3dbbd7)
C        -1.35439122012886   -0.05006455171182    3.68983300178997
C        -0.40863324448388   -1.33430947492362    3.79046837485007
C         1.14361891052384   -0.83084491518647    3.77673637419085
C         1.10490738206713    0.76877721747089    3.70534630241151
C        -0.43558559392595    1.28603712060404    3.84563437024847
C         2.54090306973952   -2.78561027177228    0.69522784961260
C         3.30000829365195   -1.49620784653757    0.57375453038366
C         3.26013897076892   -0.81718703612541    1.96049069856432
C         1.98735903621455   -1.41023337856929    2.59795473266075
C         1.54417232211747   -2.37780538358376    1.77875286171297
C         3.00877669132260    1.30129594409228    0.53987815760012
C         2.18248567450574    2.43060378720823    0.53720650556490
C         1.42015506025054    2.36228651584419    1.71425005680683
C         1.77118128276377    1.16743209429965    2.42536652279411
C         2.80899138903829    0.58481173266598    1.77976487003771
C        -0.37761958725437    3.36189602371263    0.56478615027139
C        -1.76329946612319    2.95270426211150    0.62381664170709
C        -1.94715903584809    2.23159305327527    1.83188906774381
C        -0.84422522554739    2.50809369419018    2.85014253172400
C         0.18570285149372    2.91883960016449    1.82035894307196
C        -3.32323816639177    0.64723084342105    0.57264179620657
C        -3.66949158686972   -0.81459753994267    0.66605441316437
C        -2.68687415657554   -1.22097543803724    1.77817891385008
C        -2.17286379018505   -0.13323950264089    2.40983883495639
C        -2.62251315686712    1.04592756255171    1.73991673505894
C        -1.76434499642943   -2.98933103763722    0.52406365475670
C        -0.42973370353743   -3.21701292958396    0.52750084178794
C         0.17738068197809   -2.74333078075550    1.74921715335807
C        -0.73882946433308   -2.23990628802085    2.59908441498912
C        -2.10583261683471   -2.55835663652669    1.96416385987222
C        -0.22196105355315   -3.01892767569406   -1.76336411032627
C         0.73364590334752   -2.22630505352795   -2.40813412630583
C         1.93318492185480   -2.22164207650805   -1.71373847266153
C         1.92203185655039   -3.30173467764519   -0.63828576563780
C         0.40089910190291   -3.74175049518577   -0.60379292406530
C         3.05409993540292   -1.28235156430117   -2.01839163566588
C         2.35764848259453   -0.02309766765708   -2.56745584594267
C         2.58621038733799    1.07385817606600   -1.80116702926418
C         3.27291045121731    0.65337798841982   -0.62962554038506
C         3.73704089364604   -0.78756818266542   -0.68339791356190
C         2.14718473208102    2.52606214082377   -2.01944909643969
C         0.80266417494169    2.58534547693093   -2.89147269434827
C        -0.30674810620885    3.31499218926996   -1.96535688640339
C         0.32599036219749    3.39260640452641   -0.59796103778913
C         1.82337089990501    3.25880224048262   -0.64035908589557
C        -1.57124625897892    2.54170458117162   -1.76235880737419
C        -1.89018433417770    1.36597933289156   -2.44204018892321
C        -2.89210315570164    0.64995971279325   -1.77903755833760
C        -3.16724092923000    1.35685983928695   -0.58429565823313
C        -2.33733804313995    2.53615899593369   -0.56609226107063
C        -3.15239704866919   -0.79535025185774   -2.03698216476767
C        -1.88584198951591   -1.48458633258419   -2.48627397868593
C        -1.72631747691792   -2.91693664447464   -1.99313877107373
C        -2.70048004719091   -2.95614578763305   -0.68893889342853
C        -3.68034782392955   -1.61247392462387   -0.74651273530557
C        -0.94014749731382   -0.76095232556075   -3.11141739708254
C        -0.86429870708374    0.68069238797829   -3.13263337448823
C         0.39316473170851    1.15366733204121   -3.28503574005745
C         1.32969903511600   -0.01667769644073   -3.65237889472789
C         0.39043847564698   -1.29951499858080   -3.55565402169979
C        -2.64453520270908   -0.04682799422843    4.65945044194919
F        -2.46579041316255   -0.14222245515942    5.95767920209674
F        -3.45568955664862   -1.05271382216289    4.34442685354794
F        -3.33887056391174    1.06160532487350    4.39912926791722
C        -0.73514798517517   -2.24789299465091    5.05081242631416
F        -0.68562187355713   -1.70178155028042    6.24829474738471
F        -1.97379144468388   -2.71361418097166    4.96813106398074
F         0.06433313505204   -3.30860604329242    5.03503055869669
C         1.99883235648141   -1.36443732339494    5.00969782317120
F         1.48855248638406   -1.26101296787196    6.21706758685371
F         2.32887953663382   -2.63709244747244    4.80437472147369
F         3.13534609041277   -0.69008117805187    5.08499395808283
C         2.13183868753228    1.60773128255886    4.63164769930149
F         2.09044665554025    1.41208823144868    5.92978585180174
F         3.39622528178348    1.40985453916757    4.25985943884584
F         1.93036907739306    2.90084703101299    4.35917630607861
C        -0.58261494289258    1.72902664244217    5.36779986855309
F        -0.19783597472845    0.69024763226943    6.11198192972195
F        -1.79885265143558    2.06645470401754    5.75648181275661
F         0.15005230757197    2.76099676448316    5.74880112890370
C         3.43288977214431   -3.87484027440608    1.46625485878525
F         3.81204708515478   -3.39561935281164    2.64464768854441
F         4.53204629023266   -4.21487371407131    0.82404288960048
F         2.72298316745515   -4.95808597699279    1.72948534503593
C         4.71430658974953   -0.90709365432666    2.62132897060969
F         4.80028742409020   -1.50257161506304    3.79025486294817
F         5.51308775106850   -1.60952667985932    1.81342639690713
F         5.22834759077151    0.30780266789902    2.73851497349822
C        -1.28687392102157    3.88486142916238    3.50951880756142
F        -1.60167384373135    4.73719001661080    2.52881622088734
F        -2.37238849738175    3.78771478081768    4.25837702123805
F        -0.32413299602650    4.47404409812279    4.19802844284286
C        -5.03062963637313   -0.79606055261503    1.54525929565077
F        -4.82967437453917   -0.02809150187356    2.61634176231723
F        -6.09541490974459   -0.25413493460337    0.98537226738304
F        -5.32509153091677   -2.00383310277265    1.99112347245957
C        -2.77513987763249   -3.78034223336289    2.72874851294660
F        -1.81973775779758   -4.42866004802022    3.40206034656438
F        -3.25277446983283   -4.69719653799637    1.90824809911338
F        -3.75170700940409   -3.43910866144491    3.53818134537215
C         2.80331558428635   -4.41720381774188   -1.33333541566751
F         2.32682872765756   -4.66643027884500   -2.54930483850880
F         4.03353643622850   -3.94098207817247   -1.48873328013974
F         2.91951150421884   -5.57013458615847   -0.70512380571660
C         0.19421426288069   -5.30576843796231   -0.53023392311261
F         0.49844983820266   -5.95008927673641   -1.63953941388175
F        -1.07146149708249   -5.57459382583231   -0.25373395232804
F         0.87624292367796   -5.82043111972427    0.48281335783400
C         4.01413965596832   -1.80721769860386   -3.17938121976717
F         4.36144010737770   -0.79797827259366   -3.96799234878577
F         3.33881393194513   -2.68088166142447   -3.92041342794750
F         5.13974882812733   -2.38111595232606   -2.80749041604808
C         5.31889986716746   -0.63394149821780   -0.77513039679873
F         5.65286141861203   -0.07719518268471   -1.93323899433604
F         5.97605568297536   -1.76331092141395   -0.62577351977200
F         5.72149541427875    0.21467054482570    0.16774436750208
C         3.47690478150530    3.13132129408634   -2.62943404742569
F         3.33861878194087    4.25358112212726   -3.30377899416455
F         4.10881777224080    2.27219084586662   -3.41574058422092
F         4.32345758704759    3.35183150419549   -1.61794412279913
C         0.90627498103350    3.37425010994499   -4.24536433061061
F         1.03156350442077    4.68520725256624   -4.11248409683075
F         1.93362550249415    2.98707551033305   -4.98397081277400
F        -0.20296046469882    3.14108968754137   -4.94754261366295
C        -0.78665114314472    4.78389955347200   -2.30244469368448
F         0.16164498386255    5.69624906304104   -2.14635364604348
F        -1.34111303610104    4.90955028429762   -3.49659870068785
F        -1.73588691367829    5.09987436563367   -1.41265634039586
C         2.44186831109389    4.69543136679806   -0.32523368614576
F         2.60917558400556    5.47603781546124   -1.37254868878749
F         3.59899801923143    4.59911227482533    0.31908636336535
F         1.61023166516248    5.32200716416004    0.51030490521437
C        -3.95107464224069   -0.71142859738727   -3.46417593797962
F        -4.10665684226778   -1.87284801096610   -4.06464908762839
F        -3.17344077897563    0.00272429722889   -4.28775596942380
F        -5.10269912511852   -0.07252161670831   -3.44582096714095
C        -1.97601585426338   -4.13352259141248   -3.01756467027545
F        -2.91839696602170   -3.93668480266527   -3.90732843699148
F        -0.83484545973660   -4.41430836735464   -3.65726290399643
F        -2.25274949646053   -5.26357892496809   -2.38613334649249
C        -3.74707777937749   -4.15406212279468   -0.65130676325156
F        -4.38666825898711   -4.25725244676523   -1.81071199397629
F        -3.32998991958924   -5.36100026681897   -0.34718979989223
F        -4.65344975877693   -3.86011162851914    0.27902193665156
C        -5.23192546065448   -1.70163118428220   -1.11296851109019
F        -5.49930542075992   -2.27122349803470   -2.27408133527294
F        -5.59081940883081   -0.41094461815245   -1.23105777392492
F        -6.09408304115250   -2.23624648035062   -0.27182638131468
C         1.98876608104932    0.18295331442517   -5.08053725172913
F         1.14657496077818    0.80045586903762   -5.90023211884765
F         3.07612707899247    0.92936678415171   -5.02800695906547
F         2.37051505365031   -0.96653664953809   -5.62042440838440
C         0.09704229756351   -2.05410468554605   -4.91562684541519
F         0.08795251329821   -1.25936785770514   -5.97350823678541
F        -1.15422291962149   -2.52337994937523   -4.89937874867244
F         0.91848899138772   -3.06051684141428   -5.13188874090821
