156
 energy: -517.313007680732 gnorm: 0.690033018474 xtb: 6.4.1 (a3dbbd7)
C        -1.27946989809061    0.03749821616984    3.43962307792559
C        -0.39029816548592   -1.19150993224267    3.46919214155975
C         1.05041031227717   -0.74147969947479    3.44859416736583
C         1.03302149883123    0.77464052536126    3.44759364132032
C        -0.37330369435589    1.18624117679459    3.23905327118683
C         2.31967660000780   -2.55490844027024    0.57455836703734
C         3.30919862793764   -1.48025190146997    0.63384473364044
C         2.90598652883468   -0.69381403450271    1.83461430224025
C         1.96788278475437   -1.36235667496523    2.50194372694580
C         1.66863097529142   -2.66494248414107    1.87616687961073
C         3.19835070432135    1.36129769434723    0.58475927161541
C         2.43905810164852    2.64884048748557    0.61690166217329
C         1.64796473636462    2.66145644156931    1.90501726002368
C         1.99413410504675    1.37584789279375    2.53107016297688
C         2.93482748172416    0.70949607313803    1.81616721254671
C        -0.37613405003376    3.41486417393685    0.59248701441305
C        -1.80635050845368    3.13355996893537    0.60482793373232
C        -2.06290152960262    2.38312537130172    1.90832042201147
C        -0.74210112069389    2.23364230833443    2.55214587159810
C         0.21692531113188    3.13178191853878    1.88747681851353
C        -3.36362217234334    0.73742685046339    0.60564003429262
C        -3.54888048493815   -0.73407478627108    0.59848922970149
C        -2.90228815833100   -1.21488893117779    1.90243113199394
C        -2.41344304887773    0.02399116333531    2.53016782035906
C        -2.75683509950747    1.10150503261227    1.76454677120625
C        -1.69522814961451   -2.97455381885526    0.61531235536205
C        -0.37491337483724   -3.45098999999948    0.53748857917874
C         0.25751261741976   -3.16011873979140    1.86449157593735
C        -0.78790726351348   -2.38683262540636    2.64582130858637
C        -1.94613657871752   -2.29669086030780    1.74099576445174
C        -0.18289826960737   -2.99917339295912   -1.82634230898227
C         0.75155006781035   -2.29273642225500   -2.58867617183844
C         1.96784767701203   -2.25789176219582   -1.84770573720176
C         1.79814546155213   -3.12807300064496   -0.63727264770640
C         0.33538625112339   -3.42817357418203   -0.61153762719819
C         2.74927625329992   -1.17158238512869   -1.84481191166327
C         2.40725784254149   -0.00254575606022   -2.58505263310260
C         2.78340198056412    1.10090018568672   -1.81435323596177
C         3.35200157945438    0.73158468427311   -0.60198901404816
C         3.55628976367804   -0.74070721253867   -0.65537897226644
C         2.03694838912253    2.36542867423015   -1.93752609827373
C         0.68087278160013    2.27351986943526   -2.57470281158457
C        -0.24440467307664    2.96625863177553   -1.86718417121213
C         0.35275837064140    3.58136451879033   -0.64410454215511
C         1.80051750096921    3.14768149096941   -0.65878330428970
C        -1.59241070419035    2.57655808342147   -1.81589259291864
C        -1.96718393076790    1.40323519174609   -2.58613586667139
C        -2.88847499119498    0.72478500258865   -1.85172920125780
C        -3.27008011806130    1.47831665210833   -0.63888972307327
C        -2.28414301191669    2.57204402820069   -0.65143532612965
C        -3.02330723697823   -0.72451076435524   -1.89622200074461
C        -1.89200134120267   -1.38149891334169   -2.59494044083320
C        -1.61533893390421   -2.67839180457365   -1.92288866748596
C        -2.42647082997236   -2.67732669993579   -0.61859282689065
C        -3.13883759741456   -1.40071942438089   -0.61211993294025
C        -0.98301521882389   -0.71688473636108   -3.32289639151366
C        -0.98333326284588    0.72954250701254   -3.35523256129171
C         0.34488019174631    1.14381636102232   -3.34346774721205
C         1.21449400243700   -0.01521420461145   -3.33796760320590
C         0.40108886324410   -1.16383747305710   -3.34480123951485
C        -1.90765236795491    0.15241707364070    4.84242006644795
F        -1.15093677800891    0.55974397097529    5.78837300592970
F        -2.81528933041168   -0.72961622884850    5.07250650894831
F        -2.67333079867527    1.19742012055400    4.96105088325289
C        -0.57465320291243   -1.72208382082891    4.94866547389351
F        -0.47302563340599   -1.10502725662973    6.09464478301107
F        -1.69894860911787   -2.12878808846559    5.43567471222607
F         0.18112669305904   -2.64128506015465    5.56369184461905
C         1.65148444543158   -1.11015667006100    4.81126082982960
F         1.33355026487775   -0.68745196277872    5.95855178124487
F         1.84786555299399   -2.34167507427357    5.01040677337338
F         2.96543709973970   -0.84974589749123    4.89212787298410
C         1.46192244653582    1.21065534979790    4.85181837413246
F         0.65847293917832    1.06190902812076    5.82294940756243
F         2.72884664388579    0.98823468076654    5.07576599380203
F         1.37536354223149    2.48183703607492    5.04870478264205
C         4.67775294932745   -2.09294388147386    0.96783450459728
F         4.84918063923868   -2.71414333559068    2.05821063234589
F         5.00446841308636   -3.11161551304528    0.23715430680067
F         5.56117685425144   -1.20814382335001    1.38966707072400
C         2.42850095648205   -3.75589670607933    2.68883459185927
F         3.65309090339370   -3.59424818709922    2.96328866701373
F         2.64733077139025   -4.86956653219458    2.07115688711464
F         2.21721440547144   -3.79920619085738    3.95423772613802
C         3.50448314980016    3.68447493885259    0.75658636016365
F         4.66272868151099    3.38457141457168    1.88873127533611
F         4.64175397680435    3.49515722309741    0.14457144913514
F         3.45548294835838    4.86016607554300    1.15563571058020
C         2.29706019154530    3.70033398687210    2.79235488652398
F         3.63626468663521    3.35884670159274    3.19988698870656
F         2.45325908127092    4.93781671801283    2.64038357780049
F         2.20022916174586    3.74582493408401    4.04268875390894
C        -2.56006716882157    4.46173776608298    0.73208566567209
F        -2.17991920631764    5.32732776488432    1.58980796857467
F        -2.45906065454444    5.23690846450635   -0.30298621540497
F        -3.84960982341496    4.38650187314819    0.75776565946826
C        -2.95080480147811    3.25833511729697    2.76418398548053
F        -2.50555427081859    4.37344602424526    3.20145325790017
F        -4.16584042957048    3.37176589375491    2.30430931998569
F        -3.16125073348478    2.77288867630826    3.95137742947449
C         0.25519646317173    4.46392397607420    2.69672991015150
F        -0.80169761745253    5.12593026517337    2.88272801616416
F         0.76981842293309    5.46527987254089    2.02539469490962
F         0.37528639208981    4.29166430592498    3.99693263715204
C        -5.04241361249248   -1.00205293649596    0.78092140870877
F        -5.64409618754137   -0.21037810828519    1.63832731995536
F        -5.78510473384327   -0.63536775773416   -0.21112222029902
F        -5.38230820025336   -2.25423604648331    0.77716702806243
C        -4.06069034253302   -1.73121038611698    2.74919200108390
F        -4.85861565735607   -0.78811920520378    3.21077856963334
F        -4.52498606738560   -2.88092997564590    2.30638495143146
F        -3.78061503387236   -2.10203806752218    3.93938478056675
C         0.34343814722027   -4.53570480993097    2.50058556953521
F        -0.76523473978930   -5.32138584178084    2.38913612040659
F         0.85499681436166   -5.49802845665200    1.79469928176930
F         0.69887537424050   -4.86097704034846    3.66843465231301
C        -1.24885616492417   -3.32939743072017    3.72479806598325
F        -2.03972259326023   -4.63761680573814    3.29734798839496
F        -0.56309123646995   -3.94013153584910    4.55241993914729
F        -2.40232648951967   -3.29379518604824    4.26351061741182
C         2.52450598300210   -4.43261703432986   -0.91682194266891
F         2.06779805130330   -4.97617228960878   -2.02745215155617
F         3.79957783323549   -4.23100296512185   -1.07639526852153
F         2.33780123424471   -5.29500248814953    0.03783908534052
C         5.00966745238926   -0.95666097457862   -1.02927966270709
F         5.30654272317243   -0.32775455577677   -2.16504698561171
F         5.25687406320280   -2.16016244978865   -1.45419747739534
F         5.85553008241435   -0.31373819916099   -0.29111186714856
C         2.89422802574618    3.25696623103877   -2.82669286442690
F         2.16435548807344    4.23647319136983   -3.34379007142440
F         3.13112153636574    2.70807047756466   -3.99564749437420
F         4.15324863340606    3.26396689540192   -2.37559004278435
C         0.37147625252121    5.10430497367739   -0.93343256717985
F         0.64525730876434    5.34617974883847   -2.20911232850582
F        -0.77348220536954    5.66077131013952   -1.05237512525176
F         0.72337032997342    5.79313231915553    0.11738355352560
C         2.58192556756675    4.49453000451799   -0.90437525064489
F         2.50623514866677    5.40750578940744   -1.91553058935781
F         3.84647209908442    4.57489359197899   -1.14373698246914
F         2.46969156169967    5.56084713850617   -0.18195143521481
C        -4.64587344481868    2.10954354927277   -0.89644232353136
F        -4.60065161654436    2.81659457800487   -2.00816298154996
F        -5.58912281025780    1.24613928256883   -1.02429030022712
F        -5.04256639615312    2.82679216589472    0.11217827112420
C        -4.31056555594364   -0.96197575886897   -2.70597291420394
F        -4.65077135880174   -2.17396281709918   -2.89941168430384
F        -4.18656063894971   -0.45548666699737   -3.91656972689916
F        -5.37419234658726   -0.48848225896496   -2.17000563817646
C        -2.18583337514891   -3.79513853509106   -2.77620104833643
F        -3.39226697429986   -3.68721753048432   -3.21478651124434
F        -1.61760340457945   -3.81544419581155   -3.97798717713078
F        -1.92927443838823   -4.99275480948707   -2.31473162812942
C        -3.44778113162432   -3.81049437040886   -0.73321010262562
F        -4.38899114195765   -3.68311729618669   -1.60524440891377
F        -2.90982608086317   -5.00646118841396   -0.71092932749815
F        -4.23464735413315   -3.91160308037147    0.30574319381354
