70
-143.411763363292
C      12.805026755085290     12.090590385036370     21.897034514109190
C      12.813374931112531     13.035544145069521     22.910510837820539
C      12.696045885918251     14.435450480957799     22.585135736159661
C      12.630112434704809     14.851434936617331     21.262231866116231
C      13.499869435187540     15.177443151900871     23.499874394871782
C      14.128544290830440     14.249548476871871     24.407152227988220
C      15.631674879739410     17.352335109139620     18.750904341588260
C      13.741581497227180     12.919163823540879     24.007796984590989
C      15.412780439459871     14.497751998367930     24.864616702594429
C      16.915043143487960     16.987950106368640     17.918719815985231
C      16.080588808612301     15.717429886591811     24.494558360675718
C      15.470323746403100     16.591932431734790     23.598527124456620
C      14.188533923883460     16.289980489439351     23.035690780759719
C      19.214289295989001     14.043021237152191     22.593319988731370
C      16.234766233357611     17.266629024373000     22.596708028181649
C      19.185894777739041     15.431080065812930     22.589805876850249
C      19.250764978313111     16.093650563398921     21.333355166941370
C      17.448369764750002     11.616709995454160     19.332028125538390
C      17.701843300899441     11.312191870387061     20.751066600337200
C      18.483015272167140     12.033275024617360     21.640027584276272
C      18.007381250602990     16.853081773687151     18.939595002601980
C      17.558167933402380     17.392480475932260     20.175043374434662
C      16.130884636348618     17.502091886425031     20.176701358577450
C      15.463625078686830     17.352763371057549     21.373157756619818
C      14.172751875509960     16.696643523894469     21.644949670701561
C      13.391584134645640     15.975564665839499     20.755993723920771
C      13.673758449203101     15.700576256239410     19.336318349329218
C      14.694644926689550     16.176330456653648     18.542283971316209
C      15.280376142991150     15.289900025553999     17.582952846200872
C      16.654010635309419     15.603814579361639     17.399481278515541
C      17.584110603066470     14.597556346924449     17.398387619910011
C      17.163385174520059     13.252620349099640     17.580801488894501
C      18.985005245435879     14.748399654258471     17.916363676596571
C      15.821547701216330     12.928213453892131     17.430961380947299
C      14.851364707983709     13.977874135726880     17.432069621326900
C      13.708314448984000     13.521889667067009     18.144385742072831
C      19.248220605510319     13.439389616719691     18.746871043399359
C      13.120489894554639     14.391907417388509     19.052711764513450
C      12.513136670726460     13.862216834491219     20.233295799431829
C      18.002022440274260     12.597982619817380     18.538540537805041
C      12.600568891923089     12.505098046319340     20.534351197211489
C      13.386719536320379     11.648542337063780     19.685183483287648
C      13.920151279353609     12.142832831572020     18.509322727888151
C      15.277918944522259     11.823711360060800     18.142592308818330
C      19.238236146363061     13.268897502352630     21.368867465211341
C      19.438248158026749     13.923732050641091     20.172942304031050
C      16.099997375042189     11.168285180394010     19.049306148440930
C      19.441182425268980     15.355206047525430     20.172897964222429
C      15.525466204666801     10.603067700722329     20.229854687172299
C      18.937481147855280     15.846823679500289     18.938501358424709
C      16.521904453124179     10.640792104234960     21.257785867082529
C      16.113789476490350     10.737700611523699     22.581238182840710
C      16.917616688094579     11.479695966552750     23.495980499787141
C      18.080339616316540     12.079350135896210     23.031260094086871
C      18.482676440185291     13.332805376547601     23.595112495790950
C      18.280583880843370     17.143312406036021     21.334465297589372
C      17.616297744904831     17.129265153465550     22.591607851137731
C      18.238577443788309     16.129079298628561     23.423622085600091
C      17.483728094468919     15.430403023468060     24.347513287820622
C      17.659773062340552     14.008877053499409     24.492777718248671
C      16.391776977738811     13.438547535371750     24.863505992951961
C      16.042947443962149     12.178301828215300     24.404976892642850
C      14.685848385606111     11.897535791384570     24.006721258067198
C      14.727775481284169     10.964294656941160     22.908332270991188
C      13.784020599354241     11.031383897168659     21.895921109510709
C      14.179734091641411     10.796527824107550     20.532549230301591
H      15.160940299306450     18.280926559161198     18.411331868926059
H      17.137177183265980     17.714248809686119     17.134380946081851
H      19.725764694652550     14.913556986002479     17.131455555179141
H      20.136592458928149     12.897529136145209     18.405748430067352
