63
 energy: -142.096384696533 gnorm: 0.000115362334 xtb: 6.4.1 (a3dbbd7)
C        -1.29966276866913    0.01408059263484    3.53737482570551
C        -0.37152745127903   -1.15992812903211    3.30516513855474
C         0.97567504338008   -0.71313171558173    3.27750319286255
C         0.98642122480040    0.72788372965000    3.28423132219915
C        -0.36609652217724    1.18592678615744    3.30914592487354
C         2.49760118965530   -2.75523018272869    0.63375535405928
C         3.19873241452491   -1.41565114046031    0.58735652624610
C         2.93639938394122   -0.69453628072638    1.79050971733698
C         1.93716900474579   -1.41450416553338    2.54172313807152
C         1.57845114152906   -2.58198916285185    1.82149965620662
C         3.18679817364041    1.42006783579112    0.59057950799625
C         2.34684023549676    2.59183465070419    0.59470294832055
C         1.59252685479810    2.58848792139643    1.81935413904158
C         1.95910801652876    1.41928607742960    2.56655797894557
C         2.95038080528819    0.69675871007894    1.80850143687867
C        -0.35817250354037    3.43598283590702    0.59450943320053
C        -1.73523652330152    2.99869399839527    0.61472603633154
C        -1.95823745179410    2.30391000676725    1.78872002333854
C        -0.72127100739123    2.28538488870272    2.56967657236868
C         0.26600398273578    3.00515888984381    1.81767597862509
C        -3.39062235204440    0.70887118143834    0.56418710826408
C        -3.39369560748181   -0.72477730009147    0.56509001658348
C        -2.77100051414550   -1.15356095184072    1.79097242644149
C        -2.41614879163158    0.02367134543916    2.54863386967393
C        -2.77604998366897    1.14123860022416    1.81910667182590
C        -1.72929673528419   -3.00313203391883    0.57861067690330
C        -0.36785764826922   -3.44681139499786    0.58251511570671
C         0.25735563863130   -2.97967874932588    1.80623212314647
C        -0.72814986304352   -2.25911262403819    2.55885700665620
C        -1.96995152527264   -2.27791038457845    1.79766098821093
C        -0.25075002279767   -3.00570820618531   -1.83076683896645
C         0.73927666244087   -2.28841367047027   -2.58451837482559
C         1.95989192420224   -2.28916657064413   -1.80761017231687
C         1.73255728825683   -3.01634888918211   -0.61189691107412
C         0.37500842506362   -3.43354714360679   -0.59692123751180
C         2.79293832476227   -1.16759737235458   -1.82776580951229
C         2.40717604556828   -0.00898822341869   -2.57357630440940
C         2.78021975567602    1.15999064898963   -1.81188761046597
C         3.39667662947667    0.71741455538734   -0.58852677978493
C         3.39797189694693   -0.72368192852669   -0.58643393205987
C         1.96180007580254    2.27977744409294   -1.80733930990612
C         0.73377400658417    2.27770635690784   -2.56503574807161
C        -0.25906925727945    2.99060082474482   -1.81282553887581
C         0.36924920854220    3.45188649348384   -0.57937927992539
C         1.73562607009412    3.00735332881581   -0.58503040240936
C        -1.57115329394625    2.58149954139497   -1.82822418919198
C        -1.93598846375123    1.41340360361366   -2.56326374033210
C        -2.93078460453866    0.68960136716703   -1.81163259124307
C        -3.18822754212060    1.40368229398559   -0.60143985324101
C        -2.49725655951035    2.75057261663557   -0.64267342274632
C        -2.93996131163863   -0.70275920113396   -1.83152554692815
C        -1.95007494475088   -1.42105834387150   -2.59497655676510
C        -1.57256869954678   -2.58820185369076   -1.83561765795739
C        -2.33492364630998   -2.59190431627894   -0.61235170527564
C        -3.17663668223086   -1.42891840821460   -0.61436034740816
C        -0.99347980373367   -0.72419670796994   -3.31822226615066
C        -0.98832988317712    0.71670093428134   -3.30874702867520
C         0.37876902743737    1.15727569119523   -3.30755099512421
C         1.22712994546279   -0.00404099603394   -3.31577362015115
C         0.37920870343254   -1.16874611459831   -3.31844364399115
Cl       -1.93538619640349    0.01734957946128    5.24421834398238
Cl       -3.70487477882259    4.08411563238075   -0.94924435704014
Cl        3.70595649469121   -4.10649767315072    0.93710590865896
