156
 energy: -517.224123819872 gnorm: 0.691731124012 xtb: 6.4.1 (a3dbbd7)
C        -1.23290186793182    0.03077014841295    3.42606225280002
C        -0.39356089227865   -1.22435474965800    3.46081872869647
C         1.04500106735638   -0.73690432947053    3.47152046282034
C         1.03462166164358    0.78798034093086    3.42835834652397
C        -0.36813609741172    1.20684145887984    3.25821876952757
C         2.41727845760490   -2.69954993410447    0.61608075721772
C         3.29974890551870   -1.44675942917713    0.62031150587262
C         2.92203122233047   -0.63668290816087    1.79619328032874
C         2.05293308643708   -1.48321284122230    2.64514574126307
C         1.52237749492725   -2.56349268817858    1.78383911405653
C         3.20900239540237    1.45789141002399    0.59361732705399
C         2.36419174637361    2.59347944041978    0.59203110982770
C         1.59838285258738    2.58739060012036    1.82749258407343
C         1.96789146085169    1.46814704554066    2.52011969954800
C         2.93959713670780    0.71043641674732    1.79929049697294
C        -0.31752196573658    3.46241952074888    0.63238516173097
C        -1.77857839269629    3.12711416302854    0.63414355995831
C        -1.96991956537677    2.28531578930388    1.84428230248448
C        -0.74744502999135    2.29496851127888    2.56024649706757
C         0.24709814960829    3.04476988867580    1.80653492547445
C        -3.38597037318863    0.69951242519912    0.63742405490578
C        -3.36515790693988   -0.69577994292022    0.55574886896736
C        -2.90607506593272   -1.23019257342005    1.86475792621561
C        -2.51736750172774    0.01053213699482    2.63485793257738
C        -2.76822579970197    1.18041509517383    1.76198766201163
C        -1.69041589052446   -2.99690974543994    0.62115632546470
C        -0.35075973115031   -3.49772201901720    0.57920295165546
C         0.28009664881163   -3.00448845029064    1.77176306605006
C        -0.77379936579248   -2.42630577066889    2.64764052730005
C        -1.92577077721189   -2.30281593310164    1.73487206831639
C        -0.27651438788512   -3.01035765362711   -1.77883117835187
C         0.77480305875756   -2.42683704518305   -2.66260624445353
C         1.92685593540890   -2.29478098977670   -1.74160917157880
C         1.68930941325715   -2.98679991956278   -0.62639765210372
C         0.35183759428104   -3.49408169859799   -0.58253938334286
C         2.90672527107464   -1.21364894710996   -1.86586634144355
C         2.51134579384428    0.02473969558552   -2.66591973082124
C         2.78665853900584    1.20054058803030   -1.77837971851524
C         3.39995993213651    0.72788628678004   -0.58727015412815
C         3.38946085994430   -0.65067725553123   -0.59539422263486
C         1.99804384631637    2.28691487025286   -1.76201985343488
C         0.79863767820782    2.42074772046176   -2.64335522000007
C        -0.20280555909327    3.02139196483065   -1.73774119238969
C         0.38344202838958    3.45845534829024   -0.59202484172345
C         1.76799018088982    3.03310631530271   -0.57932253677277
C        -1.61300344623792    2.66434599080653   -1.85322451307987
C        -1.93448649879146    1.42934570126589   -2.54428652472047
C        -3.04076480330738    0.74555723981397   -1.89008070225767
C        -3.29255896541308    1.49172875711552   -0.59248134018021
C        -2.30651111388463    2.57307535118120   -0.57663107541334
C        -3.06501670944343   -0.75891598799953   -1.87368253859036
C        -2.00606453284402   -1.49439640775127   -2.65923049163397
C        -1.52289590636209   -2.58208418057788   -1.78577348616490
C        -2.42154886803299   -2.69538478185432   -0.61157041840286
C        -3.14879395329469   -1.40331358502078   -0.55002263947128
C        -0.97313831084841   -0.71125346954486   -3.28249690626764
C        -1.03058515931485    0.73036676021717   -3.39700990593799
C         0.41162531812366    1.20294633813602   -3.43810714018264
C         1.21250587273663   -0.00146170079536   -3.26932986994977
C         0.38840024396915   -1.19411610708761   -3.43079812423094
C        -1.85411913927908    0.16707431724497    4.83774605800496
F        -0.99686770541703    0.54594369529087    6.01318462436348
F        -2.46938046134589   -0.67112077686219    5.54540068449918
F        -2.25498758404177    1.37853822375495    5.20203653434392
C        -0.59939910585542   -1.78144173595586    4.90148631501467
F        -0.55687516673493   -1.13544136809009    5.98799038995780
F        -1.70548172870032   -2.30147647637816    5.40226977567301
F         0.01561341641551   -2.77175081456894    5.45047895443833
C         1.52745207645289   -1.04952157264005    4.92313956354959
F         1.12511022101910   -0.60922288911381    6.10259967925651
F         1.66851042790796   -2.20856211478426    5.43786311433511
F         2.68509226981879   -0.67301637563970    5.40084460174026
C         1.49769484352880    1.26228882147190    4.80667180671024
F         0.69695286482648    1.14570187802926    5.77109660058881
F         2.79419445881613    1.08346727002209    4.96114227871759
F         1.45624284949787    2.59102880266722    4.90083391904984
C         3.31608165681425   -3.90227566071846    0.81955816350733
F         3.94421340175316   -4.03937781474757    1.92355866882684
F         4.09693325701700   -4.14445406515076   -0.19449605396607
F         2.61168808637301   -5.02178987773133    0.94081233177497
C         4.73529125752725   -1.94059385569844    0.83745734197012
F         5.06303288302847   -2.50124792718206    1.93187624302122
F         5.24804527153239   -2.63836301769977   -0.11091816589811
F         5.58162102460142   -0.92427493892711    0.94827574924216
C         2.95520713047524   -2.15378651219979    3.70333365906202
F         3.95185304347436   -2.86103989214097    3.41894763367149
F         3.88218929629060   -1.20422449902332    4.16127226011043
F         2.34385213489156   -3.29565184163019    4.14481438576232
C        -2.52206257382918    4.43579266738316    0.91127935235061
F        -2.06650133557517    4.97566454454312    2.02146398302321
F        -2.34650105982172    5.29460044515609   -0.04884809490223
F        -3.79089054228120    4.24995005657005    1.06785876939731
C        -4.10911905030092   -1.83292202075539    2.55601393011441
F        -5.16786267396338   -1.10742056524778    2.48990705626926
F        -4.63755109456040   -2.83804749383378    1.92775908314799
F        -3.86044496531564   -2.40745507441478    3.68791721241401
C        -3.47886867247426    0.14534022377149    3.77188702913823
F        -5.07829705846398    0.49053653141283    3.25521037130786
F        -4.01362795754816   -0.75045676710538    4.47726771213886
F        -3.80283364196611    1.27552635592360    4.25625341005882
C        -1.12130259480390   -3.56026406762087    3.62414745744931
F        -1.48266489795481   -4.66340121012825    2.99402762940905
F        -0.02629855248804   -4.09059680732080    4.12988150653223
F        -2.30256243510816   -3.44584719996825    4.15744222636548
C         1.12163959753087   -3.51595899407801   -3.66250608534688
F         1.49776065254808   -4.62980543153209   -3.03467803105071
F         0.10468061014757   -4.02656707987965   -4.27381776965667
F         2.20015408881392   -3.36487838452429   -4.33342482724918
C         4.12176332412374   -1.80482925179448   -2.58559386167143
F         5.21625305603583   -1.09124568595161   -2.47006672617081
F         3.88644478869313   -2.30789075824954   -3.75202170439047
F         4.58751298060359   -2.88284038940930   -2.02387910316955
C         3.52738155203270    0.11149792613712   -3.80825381990826
F         4.74476225337752    0.42151436780803   -3.43904848659785
F         3.41325858125743   -0.79345622430878   -4.71751393191989
F         3.43366972687100    1.18322492446272   -4.51666886483620
C         1.14835748594460    3.51508866182325   -3.65689238028316
F         1.50650402632234    4.63349782817446   -3.03255683099670
F         2.28221485260007    3.34796498523840   -4.25872051536488
F         0.14650603388256    4.05236377628018   -4.27932927070303
C        -2.24378791767038    3.84042980980949   -2.65179867215987
F        -3.48915381276616    3.83641106359899   -2.81846510001600
F        -1.83080723984188    3.94370081194354   -3.85864405853866
F        -2.04957154595428    4.98978608406327   -2.08126254076585
C        -4.26951546265431    1.10181049830144   -2.79048075145479
F        -4.56795075921194    2.34384275864913   -3.20698221832080
F        -4.19533028148669    0.88399190364558   -4.04989327476728
F        -5.48463699455600    0.89342025262552   -2.45610481334695
C        -4.68981677881662    2.09773246974481   -0.70408500009924
F        -4.84221403567883    3.04229912248134   -1.54826981392228
F        -5.64275774927360    1.19126722675309   -0.61035101614392
F        -5.02829393123012    2.83211406973756    0.31946246016357
C        -4.42268542399453   -1.10386513704958   -2.53212631386722
F        -4.93628110213162   -2.31905159082096   -2.61971401254721
F        -4.67172132966590   -0.90541535502092   -3.77474908687197
F        -5.47812982827297   -0.87980895878222   -1.74781318480701
C        -2.74288471778680   -2.14050636771072   -3.84883518743927
F        -3.59479521180650   -3.05212367005707   -3.61214467566304
F        -3.11415485556251   -1.30441405040285   -4.76168355203203
F        -2.01333173291485   -2.96311922230162   -4.53212436439323
C        -3.38042602115210   -3.84152186891008   -0.79965609191788
F        -4.10293821598889   -3.83612172662639   -1.83200070242695
F        -2.72194316130384   -4.97822677734118   -0.95147756420120
F        -4.25645905232071   -3.89195504329446    0.16878548932844
C        -1.58388199200274    1.05037627310969   -4.83040805728174
F        -1.13301600904223    0.42861625310699   -5.83166523412250
F        -2.74281990889950    0.61785420110569   -5.10964361449724
F        -1.79569959155299    2.31342026316642   -5.05033757393848
C         0.66962387689426    1.63985663300100   -4.90362210358313
F         0.61749964046093    0.86020092104472   -5.98121053567729
F        -0.00677565760488    2.55480725466806   -5.48860089529162
F         1.86186647697777    1.82744295261183   -5.30457509265854
C         0.53784164557405   -1.66960638768331   -4.91595728983972
F         0.23659986071872   -0.89815808346709   -5.86176344406131
F        -0.33962911663115   -2.49804070800198   -5.35579978121265
F         1.74754130623955   -1.78647422570948   -5.34105245973682
