63
 energy: -142.115339911819 gnorm: 0.000107883014 xtb: 6.4.1 (a3dbbd7)
C        -1.29801228255078    0.01152808854415    3.53228186242879
C        -0.35758272216311   -1.15804006192535    3.28784920592801
C         0.96206481135491   -0.71246602389648    3.27543331192209
C         0.97001432085470    0.71559104733146    3.25187077856231
C        -0.38082082032855    1.18976917644483    3.29380935285241
C         2.31128330698962   -2.57224385489857    0.57824571164759
C         3.16098222219522   -1.40376674506279    0.57728164927625
C         2.95812395432405   -0.69725665715218    1.79676390904161
C         2.08693795000557   -1.51623725021221    2.72230511658619
C         1.58031474575100   -2.59782090619083    1.79802661473870
C         3.17546524235778    1.40249993790831    0.56907468985752
C         2.32990151834824    2.56808036532647    0.57088725338407
C         1.57106278104651    2.56258196853978    1.79775937037623
C         1.94927232793837    1.41592740048310    2.55270702225962
C         2.94148044152507    0.67907069519901    1.79002680378437
C        -0.36871397594422    3.43151236501814    0.57764612325741
C        -1.73515718124077    3.02393262585876    0.57953265780256
C        -2.10473303978793    2.47368669665108    1.94470610693722
C        -0.74004223840969    2.29669538631020    2.58001108127105
C         0.24124756211136    2.98548433717559    1.80025810853708
C        -3.37903180886870    0.70924014585304    0.57316930964308
C        -3.38888985303639   -0.72840990757949    0.56892954258952
C        -2.76849344236350   -1.15494327486906    1.78725815022981
C        -2.39293710762248    0.03113167372505    2.52498716839826
C        -2.75710765939015    1.14080997228067    1.81049988142732
C        -1.72644219656021   -3.00249465011689    0.57248877143954
C        -0.35693257360231   -3.44206752052501    0.57122258873938
C         0.25886079346104   -2.99294906545707    1.79281797196316
C        -0.73974836417701   -2.28800692168077    2.56705603993236
C        -1.95713595782735   -2.28130856382540    1.80093697554679
C        -0.24669607867959   -3.01659812286852   -1.84053964745640
C         0.74573309777768   -2.29266189253680   -2.59722292210137
C         1.96888753960205   -2.28991221898449   -1.83667854980850
C         1.73268388716215   -3.00977665844432   -0.61205373098188
C         0.36891767522620   -3.45575442846124   -0.61326584457457
C         2.78746340958523   -1.16728267371226   -1.83857149809158
C         2.41209809301148   -0.00273576786407   -2.59742366641478
C         2.79565221290620    1.16303608562820   -1.84182014079449
C         3.40764476093017    0.71447567144156   -0.61668121389167
C         3.40016354909477   -0.71958982646191   -0.61289295842395
C         1.97785298422183    2.28582788242287   -1.83671477487438
C         0.75080604223242    2.28767635062670   -2.59072775465977
C        -0.23812095593409    3.00637950778549   -1.82532537501516
C         0.37036030396847    3.44592331578164   -0.60630525773372
C         1.74186639732271    3.00122759545651   -0.60745870597957
C        -1.55877530809584    2.57094818401869   -1.81205724228795
C        -1.94151390374617    1.40828094941090   -2.57321787925521
C        -2.93852680703387    0.68852361242154   -1.82401847987281
C        -3.17323624495968    1.40217623975278   -0.59945478122803
C        -2.30838100577653    2.57853296668006   -0.58792703882376
C        -2.94330194691629   -0.70497195048090   -1.83441196840485
C        -1.94724965421933   -1.42117377868668   -2.59364165242550
C        -1.56643965347594   -2.58918826556920   -1.83884356089711
C        -2.32415770422664   -2.58813497123224   -0.61121631836465
C        -3.17795826992116   -1.42742061788293   -0.61634561831572
C        -0.99182575187762   -0.72326899337449   -3.31972836820101
C        -0.99041163789314    0.71843898205772   -3.31277453345793
C         0.38093474784364    1.16321734969712   -3.31808041494029
C         1.22630679730435   -0.00126156050551   -3.32333035628394
C         0.37936188265446   -1.16780460576552   -3.32351699989269
Cl       -1.94684303765506   -0.02589990905427    5.21997558387826
Cl       -3.14489107740781    3.63674795958755    2.86692363965456
Cl        3.07540043578176   -2.22876458899072    4.09073493787346
