84
 energy: -225.786576959853 gnorm: 0.133640622779 xtb: 6.4.1 (a3dbbd7)
C         0.18286387653438    0.00305435508785   -4.34811760842901
C         0.17965504265762    1.30265941006129   -3.86707363267267
C        -1.18611800342445    1.64761068289940   -3.47176421725006
C        -1.17319752721178   -0.52114411485457   -4.15663588658925
C        -1.96095590389144    0.45661449500569   -3.48761960846498
C        -1.02360690864942   -1.78896521775921   -3.61239291884336
C         1.13150755528519   -0.92906279916866   -3.83489581904833
C         0.38615578756742   -2.10771749454461   -3.52627373560234
C         2.13281656002953   -0.49211395947980   -2.91577925710851
C         1.04922122941687    1.71842670251418   -2.83112678596546
C         2.06578936321909    0.85403741022963   -2.35661088760920
C        -1.11110598826402    2.44585519573720   -2.33194982334946
C         0.27401411964679    2.53316037107365   -1.90765378640946
C        -2.08934993962556    2.29337323735802   -1.35113521318815
C        -2.68435736028582    0.09543691718791   -2.29942893649987
C        -2.91227471470399    1.12367439521452   -1.35857141550807
C        -1.63510835322899   -2.12913047497668   -2.37646109710332
C        -2.50075509847578   -1.22887308690261   -1.77579402303342
C         0.58257819837955   -2.79244624983282   -2.31259403208924
C        -0.64625488777752   -2.82801991530197   -1.55120253606774
C         2.63140769484630   -1.51214932861038   -2.05131501069337
C         1.77364337149008   -2.61875975968394   -1.65094947906103
C         3.35344183075095   -1.15761365103454   -0.91823946305505
C         2.56525822133824    1.15055187778445   -1.02923650611969
C         3.37648208455694    0.16780157358457   -0.41531790405665
C         0.60719779779773    2.67099499760906   -0.57332105220645
C         1.87802136932553    2.10536084327759   -0.16068496281521
C        -1.78339179073731    2.63389597642155   -0.00085161674231
C        -0.44816420313135    2.87369321429380    0.43215834852026
C        -3.20312704914791    0.81761250815997    0.02507591580120
C        -2.67073590323319    1.87850760370880    0.82455594276740
C        -2.99363380293821   -1.63324139433048   -0.41136980132274
C        -3.19944446464258   -0.47622493227643    0.51473417171742
C        -0.64232282097463   -2.75466791436275   -0.17201592044181
C        -2.01113159035367   -2.62657205597161    0.45290136469960
C         1.80497126803679   -2.71771620300998   -0.22055107340969
C         2.94849304982302   -2.01015762548485    0.19986492111167
C         0.60805166060627   -2.63985331392569    0.54943198679619
C         3.39644462405657    0.05422831843323    1.01177527826963
C         2.95596314241574   -1.28143927721284    1.37421898350209
C         2.17436538410526    2.14499057300716    1.20042920748468
C         2.93439250320007    1.09843549922374    1.77427641691167
C        -0.18110129163800    2.76828149943109    1.82118344249384
C         1.28139655658797    2.77677509692880    2.28178551945425
C        -2.33387531048518    1.62274360289755    2.13316580567571
C        -1.16330444685545    2.26377791575746    2.69641843873424
C        -2.82374762434837   -0.79278736497175    1.85705957337505
C        -2.01398404128621   -2.09696930675114    1.93104146856801
C        -2.48440301143460    0.31362355245488    2.65823728388555
C         0.67928892762620   -2.05128734662319    1.84407594817811
C         1.87933479236916   -1.44718868505385    2.31025470903871
C        -0.60505786551796   -1.96566977205289    2.65986241198076
C         2.39848822832481    0.78357379776775    3.05172719985211
C         1.49609783253766    1.81406066550114    3.44406139157571
C         1.87201503792754   -0.47390573073524    3.34604518155441
C        -0.81129455942715    1.46782527388131    3.82425493919584
C        -1.46896424237906    0.17827476168671    3.63758385433742
C        -0.54903076977447   -0.82625937769118    3.64805411208038
C         0.50047827805093    1.23232480160659    4.19111367861883
C         0.72230143952196   -0.29757412076765    4.30578814883962
C        -2.66251813763391   -3.99593039644049    0.46561170986804
F        -2.02794057347095   -5.04160574189587    0.09417179383670
F        -3.26224159859998   -3.90672927741915   -1.29887472377678
F        -3.51656997729571   -3.84041750779378    3.03233198458233
C         1.74093458529664    4.20549984462682    2.61319763771906
F         1.76327196458859    4.98542783049869    1.52779145412641
F         2.97415395150452    4.20979979092488    3.12518153530805
F         0.93875405886466    4.79317058318555    3.50408658671746
C        -2.43266726321172   -3.23057539371598    2.92257585946162
F        -1.91624992553276   -5.40270235622840    2.25557763370942
F        -3.49396415759071   -3.00046560253916    5.41943908685841
F        -4.09868154614396   -1.57342697164303    2.91057755779069
C        -0.85950210369320   -3.37036620146110    3.32845893291118
F        -0.16213309175906   -4.21414019913656    2.54990805685810
F        -1.95102963599851   -2.75466725040667    5.44763612708777
F        -0.20820026103261   -3.50315416078247    4.49000211226263
C         0.98562594469031   -0.71197157448428    5.76411709054126
F         1.19555286798990   -2.00698898025407    5.95617049729704
F         2.07414819265355   -0.07465515920955    6.21945864242153
F        -0.03202708399386   -0.34444208862097    6.54649607296485
C        -4.30631105655326   -2.28410121539915   -0.78167717345650
F        -3.92649444153762   -3.92475481806661    0.71317668166351
F        -5.31345468325013   -2.21371172745200    0.04676809561227
F        -4.80304264301750   -2.15716923952569   -1.97445925155142
