66
-4239.805566651711
C      -1.321472710908955     -0.028043981463162      3.563788695962579
C      -0.413174348629845     -1.208686047472044      3.357901254692425
C       1.013277895685077     -0.785606542877660      3.577714163327470
C       0.900166761744427      0.666835191458602      3.160852610024750
C      -0.372778779817662      1.079659495856998      3.152754472862080
C       2.277316068015969     -2.533847983177067      0.567817262046561
C       3.092376299209858     -1.370883898305572      0.571559660300139
C       2.865835871224619     -0.665466216635238      1.810445684702378
C       2.105268400381606     -1.550467943392318      2.769402484728480
C       1.551491717525372     -2.562813361555140      1.803922284231908
C       3.104002554893163      1.384742255552599      0.565142292669123
C       2.268527765251511      2.541298361033567      0.568083576757541
C       1.533130455678403      2.571633811258182      1.798095356320881
C       2.050802084666096      1.507248353365794      2.726991015320354
C       2.892562708701283      0.681897696328206      1.802044424155771
C      -0.354919820682198      3.393012790201808      0.557108971240598
C      -1.710646204122277      2.947810459147026      0.545662402043215
C      -1.965021267956020      2.260368090818526      1.782829813537305
C      -0.804533601463962      2.435836594901199      2.714673956110975
C       0.248394812602461      2.989248837251343      1.792681028400490
C      -3.321805798842428      0.712077392583251      0.544788591923691
C      -3.346757267306809     -0.708109722880088      0.543078121385189
C      -2.788513646059770     -1.156842166199454      1.784593771401795
C      -2.648262459048602     -0.008701525181929      2.747261224648362
C      -2.736792393873543      1.154954908933979      1.787904973852339
C      -1.714349571643590     -2.945611020089766      0.552949929441203
C      -0.357261816109775     -3.386258380299142      0.559169221074986
C       0.256932457281687     -2.958513364249771      1.781280755521093
C      -0.741814626072253     -2.230687722358187      2.561298481165027
C      -1.971463023229663     -2.236573973717603      1.771529559844446
C      -0.240910985340402     -2.989383342395420     -1.868361355159467
C       0.743962885991523     -2.285641780705836     -2.638086459982988
C       1.952194999836667     -2.277029637424618     -1.852865249168073
C       1.709210272949016     -2.965738464433135     -0.619735625069144
C       0.354317781486441     -3.407154243915001     -0.627906992644799
C       2.760167720583582     -1.156304831216148     -1.850135209129292
C       2.397212675898317     -0.005420940669580     -2.634178511395443
C       2.762939924282948      1.151732083036592     -1.860113811178713
C       3.336624046947034      0.717498728019932     -0.619712141282789
C       3.334448999152669     -0.708852269098594     -0.614068243141822
C       1.951082531881930      2.269496827088572     -1.862966295703357
C       0.744227525128345      2.272152644439619     -2.643481474538341
C      -0.239841967490568      2.980498530944319     -1.871718305002377
C       0.353634799248247      3.395447330303968     -0.629800718619493
C       1.705802453366901      2.956951726064967     -0.624269037863249
C      -1.553510579236707      2.553406276893358     -1.877782254373827
C      -1.931707693676719      1.400632524421342     -2.652781530011840
C      -2.907002193915644      0.684407592488257     -1.873754065433833
C      -3.117257953902894      1.386203479715584     -0.640675937055644
C      -2.281122232775945      2.541173876560841     -0.642481373356883
C      -2.911603907954507     -0.697015467604381     -1.873836728427229
C      -1.933473686672589     -1.416450118498496     -2.650343532449126
C      -1.556083110955446     -2.562603348946383     -1.874581276519883
C      -2.292600970240394     -2.547237033355642     -0.639787115227658
C      -3.129233651430283     -1.393739317015986     -0.641020355521425
C      -0.984111376610768     -0.728825458994147     -3.386340299071984
C      -0.983599776286188      0.712425291910352     -3.387144146911107
C       0.385462688606260      1.157679547056690     -3.381950770440006
C       1.231394583364928     -0.007013689698674     -3.377391924598048
C       0.385518412831611     -1.173518493833071     -3.380032361569854
Cl     -1.654132936793284      0.206456313724025      5.328444409495040
Cl     -4.111047856985882      0.026537598062455      3.805168135907017
Cl      3.305925020166725     -2.368868232889559      3.840990009019803
Cl      2.966829407342453      2.146320821996416      4.140435488989750
Cl     -1.176563863585997      3.497671009611184      4.121847700676551
Cl      1.407162829343742     -0.787451774437141      5.345723139527538
