63
 energy: -142.088701900143 gnorm: 0.000151257012 xtb: 6.4.1 (a3dbbd7)
C        -1.29952852444865   -0.00518721140420    3.51972381450926
C        -0.36969431025173   -1.17697989716980    3.29634122434386
C         0.98238600267068   -0.71681819498682    3.27295042367859
C         0.97629567894067    0.72146071366489    3.27930183648628
C        -0.37513944731905    1.17511397383994    3.29667528898270
C         2.33796886445721   -2.58013101710177    0.58806878090625
C         3.18964057512489   -1.41587102917583    0.58391641480740
C         2.95358838667953   -0.69425666620626    1.80791267828350
C         1.95982827858300   -1.41683511947756    2.56605713252056
C         1.58680359116009   -2.57659783597770    1.81240694112605
C         3.18667428022674    1.41040674129936    0.58223773663484
C         2.32506273989098    2.57288832448323    0.59139868314367
C         1.59461280744052    2.57666233737110    1.80933227180267
C         1.94260682110478    1.42256011072956    2.54294113837222
C         2.94908179936056    0.69115646488822    1.80195904901972
C        -0.36818525650103    3.46197509753159    0.57993347578024
C        -1.71448405854348    2.99053316569529    0.58014752155025
C        -1.95077821784068    2.27231999634034    1.80612484140546
C        -0.74795297413346    2.28111164367520    2.57876727179403
C         0.25752783786388    3.20751824365148    1.93052541657533
C        -3.40376933228539    0.72389497769616    0.57073273575248
C        -3.40216795552230   -0.71257740746481    0.56949344486674
C        -2.77731875900976   -1.15016765959065    1.80577520345325
C        -2.42240756154369   -0.01470165627634    2.54487129911394
C        -2.77504505394810    1.14656081295725    1.80135580796325
C        -1.74046853352722   -3.01002712182181    0.60229153614568
C        -0.34892026867569   -3.44288246913223    0.58374850936649
C         0.26159836691851   -2.99843858398208    1.80505977943975
C        -0.72836311830011   -2.27956247615840    2.55995407607756
C        -1.97106088095519   -2.30718748566723    1.79702342041200
C        -0.25286962576090   -3.22211601208653   -1.94004316726420
C         0.75298513423474   -2.29402619368425   -2.58441634870093
C         1.95351145477821   -2.27720086806418   -1.81615020411726
C         1.72404587612614   -2.99880122009264   -0.58871245150128
C         0.37490497837199   -3.46773195500290   -0.58537399278006
C         2.78954719405763   -1.16191584110154   -1.82042833656988
C         2.41425067842381    0.00239239052223   -2.57246298744902
C         2.79842860809979    1.16658051602899   -1.82221681570005
C         3.41445229527756    0.72047282150210   -0.59969386587412
C         3.41119660201429   -0.72231612932851   -0.59804222958432
C         1.97219361062535    2.29090878174568   -1.81101030279350
C         0.74108309859409    2.28517450426436   -2.56824654664364
C        -0.24854262144606    3.00867996738224   -1.81787131393757
C         0.35897748520160    3.44767439736031   -0.58906832486409
C         1.74536829952563    3.01254712599461   -0.59865479783530
C        -1.57260675577276    2.58259062024564   -1.82507006793133
C        -1.95559272359151    1.42102723211921   -2.58756154825067
C        -2.95426622674011    0.70325107480801   -1.83407471304431
C        -3.18273678006283    1.42148367637254   -0.60668850742821
C        -2.32545495544299    2.58220030674963   -0.60549063164880
C        -2.94975707778425   -0.68470255570548   -1.82920100742004
C        -1.94466155864936   -1.41314307950434   -2.56759328235138
C        -1.58636182814140   -2.57576301148416   -1.80903672188451
C        -2.30996170986991   -2.56786308692640   -0.61250633105249
C        -3.17649735757812   -1.40233681066067   -0.60496902753077
C        -0.99871873747111   -0.72104243304779   -3.30785520345344
C        -0.99517973361356    0.71626109048234   -3.30379991523512
C         0.37771110606045    1.16098133448293   -3.29627633205050
C         1.22222824094989   -0.00315336273149   -3.29012111681198
C         0.38237456052793   -1.17064372124669   -3.28933684812321
Cl       -1.92774941453464    0.00251721188037    5.23514109031734
Cl       -0.38680068249627   -4.78774643716293   -2.88353560944558
Cl        0.37306881523849    4.77294045339294    2.88878031514520
