62
 energy: -137.535279306214 gnorm: 0.000134311187 xtb: 6.4.1 (a3dbbd7)
C        -1.30014750655580   -0.00000000000000    3.54146261018554
C        -0.37408365258340   -1.17393924892894    3.32078823005677
C         0.97829899552532   -0.72151520461057    3.29033845911318
C         0.97829899552531    0.72151520461057    3.29033845911318
C        -0.37408365258340    1.17393924892893    3.32078823005677
C         2.33518486893931   -2.58174271825771    0.59238042554252
C         3.18151366711688   -1.41495727438304    0.59453961655951
C         2.94417425499652   -0.69442383749780    1.81943316645011
C         1.94901072693178   -1.41549927303239    2.57242158206438
C         1.57569814142012   -2.57700707617561    1.81469756379899
C         3.18151366711688    1.41495727438305    0.59453961655951
C         2.33518486893931    2.58174271825771    0.59238042554252
C         1.57569814142012    2.57700707617561    1.81469756379899
C         1.94901072693178    1.41549927303239    2.57242158206439
C         2.94417425499652    0.69442383749780    1.81943316645011
C        -0.36401889452967    3.44154385491171    0.58961664839601
C        -1.73864885144047    3.00069218491982    0.59490086508966
C        -1.97328874540781    2.29067297409157    1.81651339282637
C        -0.73558072572954    2.27461552149224    2.57461472240005
C         0.25039897822118    2.99499687708257    1.81457974717950
C        -3.40245554229262    0.71717215031391    0.58415925203056
C        -3.40245554229261   -0.71717215031392    0.58415925203056
C        -2.77499005526979   -1.14908343029248    1.81502157258169
C        -2.42334234046596   -0.00000000000000    2.57078638525804
C        -2.77499005526980    1.14908343029248    1.81502157258170
C        -1.73864885144047   -3.00069218491982    0.59490086508966
C        -0.36401889452967   -3.44154385491171    0.58961664839601
C         0.25039897822118   -2.99499687708257    1.81457974717950
C        -0.73558072572954   -2.27461552149224    2.57461472240005
C        -1.97328874540781   -2.29067297409157    1.81651339282637
C        -0.25039864589356   -2.99499635489711   -1.81457923706943
C         0.73558102122202   -2.27461534630638   -2.57461438082655
C         1.97328978085187   -2.29067402760945   -1.81651354525059
C         1.73864943120362   -3.00069246296222   -0.59490088567760
C         0.36401925864644   -3.44154377920259   -0.58961643953568
C         2.77498932730514   -1.14908310770628   -1.81502146761211
C         2.42334306124751    0.00000000000000   -2.57078756015808
C         2.77498932730514    1.14908310770629   -1.81502146761211
C         3.40245472697015    0.71717200832508   -0.58415910770183
C         3.40245472697014   -0.71717200832508   -0.58415910770183
C         1.97328978085187    2.29067402760945   -1.81651354525059
C         0.73558102122202    2.27461534630639   -2.57461438082655
C        -0.25039864589355    2.99499635489711   -1.81457923706943
C         0.36401925864644    3.44154377920259   -0.58961643953568
C         1.73864943120363    3.00069246296222   -0.59490088567760
C        -1.57569797397102    2.57700679737871   -1.81469736153734
C        -1.94901051086706    1.41549924508930   -2.57242144561019
C        -2.94417443924538    0.69442376656288   -1.81943304345863
C        -3.18151387712093    1.41495699265326   -0.59453944644489
C        -2.33518433175758    2.58174222950397   -0.59238006043022
C        -2.94417443924538   -0.69442376656288   -1.81943304345863
C        -1.94901051086706   -1.41549924508930   -2.57242144561019
C        -1.57569797397102   -2.57700679737870   -1.81469736153734
C        -2.33518433175758   -2.58174222950397   -0.59238006043022
C        -3.18151387712093   -1.41495699265326   -0.59453944644489
C        -0.97829857094782   -0.72151517245257   -3.29033786758775
C        -0.97829857094782    0.72151517245257   -3.29033786758775
C         0.37408413346083    1.17393934443194   -3.32078809806902
C         1.30014805711173    0.00000000000000   -3.54146447547119
C         0.37408413346083   -1.17393934443194   -3.32078809806902
Cl       -1.94486429764390   -0.00000000000000    5.26812134505287
Cl        1.94485803479735   -0.00000000000003   -5.26812401942218
