62
 energy: -137.548316752113 gnorm: 0.000360022619 xtb: 6.4.1 (a3dbbd7)
C        -1.30189049510444   -0.00000028203958    3.53453798625621
C        -0.37309439173466   -1.17457033111838    3.31356765780356
C         0.98030388200192   -0.72134113710284    3.29411327991183
C         0.98030365763868    0.72134107633034    3.29411282830689
C        -0.37309451667542    1.17456996436434    3.31356758700330
C         2.33830942555835   -2.57941061649217    0.59863882534869
C         3.17617443274331   -1.41514130593985    0.59296716809366
C         2.94502348528912   -0.69178370494848    1.82007726644556
C         1.95081056228472   -1.41506021950529    2.57562783458017
C         1.58132033421545   -2.57953259966829    1.82370708744972
C         3.17617409195667    1.41514130491448    0.59296688715516
C         2.33830912803617    2.57941039570313    0.59863878096244
C         1.58132019656280    2.57953234460493    1.82370670741822
C         1.95081028702474    1.41506016740613    2.57562739604909
C         2.94502256774182    0.69178356013190    1.82007639212996
C        -0.35991548689016    3.43851369737148    0.59017344278572
C        -1.73901618007395    3.00021980086583    0.59566025315853
C        -1.97360227599278    2.29308970027903    1.80366064472975
C        -0.73127858885780    2.27430000419322    2.57091701495590
C         0.25451653014221    2.99465068549510    1.81713632794230
C        -3.40318281474903    0.71861970272121    0.57262998289263
C        -3.40318320094248   -0.71862032458208    0.57262934259604
C        -2.77481838782191   -1.14899418479672    1.80455138772990
C        -2.41857940722933   -0.00000038015159    2.55120192495278
C        -2.77481878685638    1.14899402779849    1.80455204274428
C        -1.73901568465745   -3.00021858309410    0.59565924866971
C        -0.35991546570722   -3.43851338584447    0.59017319650998
C         0.25451663663632   -2.99465048169282    1.81713625944685
C        -0.73127843402275   -2.27430004911857    2.57091687800784
C        -1.97360101486842   -2.29308852784218    1.80365926524041
C        -0.24489248837753   -3.00073328265493   -1.82209557246772
C         0.73070827902650   -2.29346458460843   -2.57195246883274
C         1.97258833001008   -2.27449185481028   -1.80389010689216
C         1.73915764396205   -2.99475519994894   -0.58506337155028
C         0.36695068310481   -3.43858859110215   -0.58597549837976
C         2.79686366495171   -1.17455216112664   -1.81545960109060
C         2.57878901907315   -0.00000036837908   -2.74458885054404
C         2.79686359625422    1.17455167474107   -1.81545983510888
C         3.38492556304147    0.72134395940111   -0.59631419368147
C         3.38492592313494   -0.72134406455242   -0.59631402008742
C         1.97258842995490    2.27449174019559   -1.80389031252725
C         0.73070887233498    2.29346563728443   -2.57195395744681
C        -0.24489191775551    3.00073436290323   -1.82209620262028
C         0.36695088073734    3.43858888225838   -0.58597552801193
C         1.73915768689735    2.99475539873282   -0.58506353653973
C        -1.58326685111447    2.58022627681424   -1.81511659549976
C        -1.96492306296075    1.41526711916650   -2.58095367312436
C        -2.96394674168019    0.69422776296571   -1.83190144323429
C        -3.18689982961245    1.41509452534907   -0.60328548574258
C        -2.33144179863777    2.58026020405612   -0.60458549572026
C        -2.96394789392979   -0.69422881361241   -1.83190273352947
C        -1.96492345297908   -1.41526732297686   -2.58095424507302
C        -1.58326658034804   -2.58022549744617   -1.81511630238593
C        -2.33144105056933   -2.58025929511021   -0.60458570877194
C        -3.18689979726759   -1.41509448291325   -0.60328607014933
C        -1.00981723542341   -0.71860947730934   -3.30004541566864
C        -1.00981646302548    0.71860856779643   -3.30004411368390
C         0.37294109861684    1.14902904096147   -3.28827789960193
C         1.19994543146351   -0.00000040991224   -3.30308923920500
C         0.37294078318595   -1.14902933995480   -3.28827770596007
Cl       -1.95191023406027   -0.00000024313191    5.24575650987795
Cl        3.81873564205648   -0.00000048131829   -4.09224882003176
