108
 energy: -324.516765627006 gnorm: 0.000266707132 xtb: 6.4.1 (a3dbbd7)
C        -1.36102808939396    0.02676915571672    3.64777714804218
C        -0.42405977964580   -1.24223377607563    3.62155887802880
C         0.98653607380267   -0.67709133745554    3.41418086896800
C         1.08514330446800    0.80125363564005    3.66595219170380
C        -0.36781192661806    1.14798867370257    3.34178884008480
C         2.27998079628228   -2.55019298676402    0.64367826542082
C         3.12088771803498   -1.36164184963871    0.63022851382207
C         2.96672447388921   -0.68191716523556    1.82318058778988
C         2.07496479575559   -1.48187918711886    2.76661090474187
C         1.55223666774255   -2.55495339123136    1.82583399158576
C         3.24647304008557    1.41209981058955    0.59296476610424
C         2.35346593456194    2.42766388558595    0.56534646509186
C         1.59517343954154    2.42852067884655    1.80738654806893
C         2.00544859719035    1.41262625163862    2.62560490630976
C         3.23013559562047    0.76607393379777    1.98716470204047
C        -0.30489937496824    3.38540223358642    0.57860090601631
C        -1.69961982536748    2.97938297382750    0.59403105209161
C        -1.92731481117844    2.25851699203750    1.76797490677834
C        -0.69749355846119    2.19104363574115    2.53250543309531
C         0.28173337383798    2.92494405348160    1.78444683534658
C        -3.35143796597888    0.65707133103989    0.55635324026529
C        -3.43456276298191   -0.70941555578387    0.53068057042651
C        -3.04617188907166   -1.22612450659811    1.91651772936609
C        -2.42916697904898   -0.00060553694251    2.57182222399622
C        -2.71482176460694    1.07963104063585    1.77942012329459
C        -1.77423965904020   -2.94768705982626    0.57294021745736
C        -0.40009718365514   -3.37662876149951    0.57282609721447
C         0.20198185278113   -2.90196430264144    1.80669193557841
C        -0.76723303979143   -2.17559943593900    2.49421475262892
C        -1.96257679262148   -2.21765549300406    1.72579013444184
C        -0.28792403034862   -3.01914320001912   -1.82984453746578
C         0.70603512779305   -2.28926982625946   -2.54593268535119
C         1.92124302312745   -2.28954621600129   -1.75683119540796
C         1.69943763718496   -3.00409499206192   -0.56905073609523
C         0.33599044507544   -3.46023537506323   -0.57734576805604
C         2.76456020321130   -1.15048504882440   -1.76260788056102
C         2.40535946695150    0.01090759670667   -2.54111724078391
C         2.80797443696804    1.15567533316840   -1.85101808268017
C         3.69458557106765    0.75000034086367   -0.66841436558261
C         3.41893419371663   -0.74002569797254   -0.59883635076109
C         1.99107955877213    2.27661183138549   -1.84512884328239
C         0.85191687034462    2.50159795870857   -2.84500963673817
C        -0.23254212826986    3.27837351827812   -1.98796077843185
C         0.41804072051845    3.40755410670920   -0.61010300896487
C         1.73080932463450    2.91766643429670   -0.63286480944490
C        -1.51033776471396    2.49852636529494   -1.79166810515169
C        -1.91763638238261    1.35927574968421   -2.54070806023259
C        -2.91049415940188    0.67521641646203   -1.86840540389295
C        -3.33290414767983    1.50073328426673   -0.67124573815395
C        -2.25904180765068    2.56754091166578   -0.63122406976056
C        -2.97890884573392   -0.73622459691016   -1.84534356422284
C        -1.95641298425460   -1.44322742165325   -2.59709692815927
C        -1.59895556936003   -2.60654902997830   -1.86169348380772
C        -2.56641539445057   -2.79667132856258   -0.69330664569853
C        -3.26351974215128   -1.43801890962909   -0.67076358916720
C        -1.00699759834110   -0.75889525887071   -3.33541605266630
C        -1.06042655180659    0.74407749433144   -3.59074359032189
C         0.38114332228973    1.15396193021109   -3.34213093938744
C         1.16814107445052    0.03686741558117   -3.25127495800735
C         0.34169384120368   -1.16130660204378   -3.26732587928289
C        -2.13375921207302    0.38010386889232    4.96844770995340
F        -1.47892738882047    0.15218452264774    6.09454025092305
F        -3.29371626035818   -0.26870760488915    5.04499214119412
F        -2.43395313398667    1.68364029664308    4.93692186566536
C        -0.47248676292984   -2.12895644826081    4.92241194000604
F         0.27635238527014   -1.64681242191392    5.90544127588341
F        -1.71634812350589   -2.27139546002717    5.36719708662552
F        -0.03342354391198   -3.36032746996258    4.65516232634698
C         1.50372807733762    1.29348608180212    5.10806976025223
F         2.15255154000223    0.36610119623371    5.79729329908019
F         2.28941668525690    2.36971004947823    5.00853065852824
F         0.44448859828453    1.67757964441933    5.81933233823194
C         5.17424646568858    1.04610194680163   -1.02375777769922
F         5.51568881925908    0.45377107336112   -2.16861785048307
F         5.37172533307465    2.35305899509043   -1.17115226725710
F         6.00638593226413    0.60910348614078   -0.08549721144563
C         3.05159138805121   -2.17624043732761    3.79114938969501
F         3.90229158384867   -2.96474557375269    3.12952137401166
F         3.77839062003869   -1.28125345035727    4.44705019398854
F         2.42632260502360   -2.92613292646551    4.68173042820884
C         1.49972309694604    3.26652611281160   -4.04024335710177
F         2.28380737559134    4.26156835610967   -3.63171365791843
F         2.28795328865438    2.41836349679738   -4.71322479047834
F         0.62546471013471    3.75580338631479   -4.90769611666064
C        -0.66835989036275    4.68869180380322   -2.47062087736097
F         0.34846537432981    5.52037598701785   -2.66528909311998
F        -1.39471500246787    4.64615788877976   -3.58189244536551
F        -1.44020820879285    5.24517873665663   -1.52718330048482
C         4.56046192479843    1.08887053200410    2.74674804932472
F         5.06863516784656    2.24737417395423    2.32614537858296
F         5.46999585045475    0.14302779104411    2.52311748109167
F         4.39378189698921    1.18576140588979    4.05619360566452
C        -4.72374673831736    2.14058429490777   -0.91029325085591
F        -4.73584276266257    2.86416572168031   -2.02681457891730
F        -5.66389360667984    1.20632331950480   -1.02431461468631
F        -5.06365029352177    2.93972247271079    0.09576378562552
C        -3.49193338457571   -4.00101617230518   -0.97972333230331
F        -4.29945204630879   -3.75489044929486   -2.01268497512285
F        -2.76201625454864   -5.07686670105396   -1.29473385446344
F        -4.24785287456513   -4.33254481746053    0.05899130520522
C        -4.29785539316995   -1.77592259185324    2.64506733382681
F        -5.09381960051073   -0.78322232855064    3.03872578118734
F        -5.01746955268154   -2.54615706874853    1.82800892247752
F        -3.97923184490111   -2.51036647286558    3.70270856239750
C        -1.57020425963085    1.03896734575571   -5.02118718385077
F        -0.73451355251657    0.54988701380363   -5.93736268308217
F        -2.76028788704112    0.46876421321642   -5.21701286198401
F        -1.70741161175140    2.34061303057570   -5.24593216034453
