61
 energy: -132.999445565435 gnorm: 0.000281642120 xtb: 6.4.1 (a3dbbd7)
C        -1.29787641585044    0.00000000667922    3.53202116646677
C        -0.37104481065441   -1.17482543278384    3.31059261925198
C         0.97976515916979   -0.72156107712535    3.28104712820401
C         0.97976516288852    0.72156107858176    3.28104712903830
C        -0.37104480369715    1.17482543974237    3.31059261196133
C         2.33542477044298   -2.58262367514800    0.58344648152653
C         3.18204998146151   -1.41541573389074    0.58232164338992
C         2.94371439232197   -0.69403081124004    1.80704033467785
C         1.95046028292753   -1.41556331193497    2.56175470892469
C         1.57765655865325   -2.57867331000175    1.80910634993432
C         3.18204998724502    1.41541571949115    0.58232164075587
C         2.33542478200271    2.58262366481123    0.58344647645177
C         1.57765657055445    2.57867330572288    1.80910634408513
C         1.95046028802410    1.41556330676406    2.56175470609403
C         2.94371439196890    0.69403079981791    1.80704033305658
C        -0.36121075596935    3.44514295050745    0.58582583710889
C        -1.73469665175506    3.00153729309989    0.58916988267371
C        -1.97222480968515    2.29311493084291    1.81061577575745
C        -0.73399995198985    2.27688767388331    2.56852066259501
C         0.25309260640965    2.99783526839328    1.80896440342803
C        -3.39644111693020    0.71758396395048    0.57410459491055
C        -3.39644111678014   -0.71758394656596    0.57410459627180
C        -2.77162062296740   -1.14961447038060    1.80663983076053
C        -2.42167808374330    0.00000000706395    2.56057409222010
C        -2.77162061678502    1.14961448537109    1.80663982725741
C        -1.73469666570155   -3.00153728372236    0.58916988949562
C        -0.36121077255854   -3.44514294643210    0.58582584400210
C         0.25309259184262   -2.99783526559993    1.80896440907514
C        -0.73399996370391   -2.27688766599920    2.56852066930614
C        -1.97222482108763   -2.29311491985322    1.81061578186543
C        -0.24585749953026   -3.00970010195394   -1.82231347965118
C         0.74437853852654   -2.28840468878679   -2.57821405635399
C         1.97266851568853   -2.28859742934162   -1.82114066131060
C         1.74029468397596   -3.00828365076522   -0.59623199445314
C         0.36724166472022   -3.45112319273930   -0.59442676666074
C         2.79025576776539   -1.16550190574122   -1.82330220682219
C         2.41075474253680   -0.00000000646621   -2.58030010604101
C         2.79025577605798    1.16550189118991   -1.82330220971950
C         3.40596463265820    0.72108335298546   -0.59876616242065
C         3.40596463022393   -0.72108336998219   -0.59876616154969
C         1.97266852788496    2.28859741772025   -1.82114066587012
C         0.74437854988981    2.28840467889635   -2.57821406029349
C        -0.24585748565818    3.00970009751647   -1.82231348592876
C         0.36724168083752    3.45112318924386   -0.59442677340462
C         1.74029469960446    3.00828364305192   -0.59623200072625
C        -1.56846053681017    2.58048540744566   -1.82120276259497
C        -1.94728838726557    1.41533157523938   -2.58356902764316
C        -2.94242062809452    0.69433933904939   -1.82975460110405
C        -3.17477337420380    1.41443838671422   -0.60325812912074
C        -2.32688214488324    2.58112377425828   -0.60085951145197
C        -2.94242062508280   -0.69433932710405   -1.82975459899308
C        -1.94728839272887   -1.41533157223824   -2.58356902527151
C        -1.56846054881895   -2.58048540519810   -1.82120275725639
C        -2.32688215723426   -2.58112376469606   -0.60085950602596
C        -3.17477337870350   -1.41443837233136   -0.60325812666512
C        -0.99138630436206   -0.72097083275832   -3.31026332920544
C        -0.99138630088463    0.72097082837249   -3.31026332654349
C         0.38053783888723    1.16547456213199   -3.30881397511022
C         1.22667969766839   -0.00000000811679   -3.30781189806247
C         0.38053783212074   -1.16547457266707   -3.30881397467606
Cl       -1.93714244443625    0.00000008763683    5.25460419915291
