65
 energy: -151.246101225486 gnorm: 0.000252272312 xtb: 6.4.1 (a3dbbd7)
C        -1.29673850481705   -0.00200121267661    3.52148031308268
C        -0.37732503544588   -1.17547691918983    3.24398022477679
C         0.93808498283573   -0.71702593283134    3.21596299936140
C         0.91289441597759    0.70949133677508    3.17397896975869
C        -0.37280190615548    1.16190226486258    3.23573107635169
C         2.30130964891573   -2.57293552183340    0.57145024560555
C         3.13894844574667   -1.39783867603430    0.57228413867706
C         2.92948469663856   -0.68550843586203    1.79172319935518
C         2.07606373926615   -1.52428477891553    2.71626002699236
C         1.57216238503729   -2.60917300531706    1.78997145849477
C         3.13491390104904    1.39170922210797    0.57103188287218
C         2.29526429823181    2.56149944313922    0.56834998799063
C         1.55978964407170    2.60074600223653    1.79113723303175
C         2.07517798644721    1.52311152599966    2.71999432967900
C         2.92705257756426    0.68276550801166    1.79211037353883
C        -0.35151684917434    3.42706320484073    0.56830387354755
C        -1.71674663247440    2.97360118243887    0.56716410553680
C        -1.96630481107962    2.28134839233291    1.79263104774030
C        -0.80187359280178    2.48717128059080    2.73834825935971
C         0.26011036667072    3.02808831783566    1.79582036714110
C        -3.34075255191570    0.71423315771411    0.56676163461520
C        -3.35267482749067   -0.72570475932115    0.56765058611671
C        -2.78069246777502   -1.17590359793127    1.78638300941120
C        -2.63064184353890   -0.00648402692666    2.73943068204322
C        -2.74826534755228    1.16315676028064    1.78663838724712
C        -1.73022509050681   -3.00426049534061    0.55707971762548
C        -0.36138467987435   -3.44888131675673    0.55774409308410
C         0.25093152901723   -3.01559696732889    1.78478971607070
C        -0.75382862303733   -2.32118391608485    2.56128942944941
C        -1.97145037179166   -2.29292647461003    1.78690342231270
C        -0.24634944787927   -3.01873895405735   -1.85549821751447
C         0.74540373029492   -2.29595821851097   -2.61066710569002
C         1.96710372661890   -2.29316563930872   -1.84647483608731
C         1.72875568169224   -3.01257108349704   -0.62246953377017
C         0.36576398024843   -3.45996685220055   -0.62658640644927
C         2.78287409557590   -1.17001861628477   -1.84760557511112
C         2.40824837573568   -0.00591104019191   -2.60830882362813
C         2.78281306864506    1.15998072483427   -1.84903573803651
C         3.38110113130663    0.71165885213346   -0.61697146198351
C         3.38149681596143   -0.71902831914245   -0.61627480641654
C         1.96929858622340    2.28344074724443   -1.85167667154980
C         0.74693772882267    2.28536350511948   -2.61291997254508
C        -0.24404697406680    3.00395567475877   -1.85340096345576
C         0.36794595781982    3.44222021611170   -0.62360953805015
C         1.72806059480654    2.99944546027211   -0.62363163637089
C        -1.56249976042236    2.57433651580199   -1.85404581459088
C        -1.94329543259384    1.40940085812840   -2.61275199182927
C        -2.93052590607273    0.68778304443369   -1.85267308177618
C        -3.14758415901582    1.40547262153565   -0.62155614795667
C        -2.30971428188606    2.56469239973136   -0.62242546128408
C        -2.93028879511342   -0.70097375018514   -1.85025069598643
C        -1.94339286180489   -1.42287678339762   -2.61314055159725
C        -1.56607521753462   -2.59027671778203   -1.85686014944575
C        -2.32081715001285   -2.58599222362410   -0.62832330057354
C        -3.15795395431711   -1.42125568495229   -0.62569012471403
C        -0.98822042066869   -0.72732790544764   -3.34409050649017
C        -0.98765509215743    0.71448379265329   -3.34515975375544
C         0.38195975376132    1.15952583650949   -3.34449641641705
C         1.22832966491545   -0.00578598290919   -3.34334061148521
C         0.38188962829704   -1.17239726304248   -3.34315978574814
Cl       -1.55126563049704    0.01238431282523    5.31388316067405
Cl       -4.08166538644146    0.00086160776259    3.81591434227293
Cl        3.03962094543009   -2.21187838647451    4.09988647069665
Cl        2.99596256630203    2.17443195566380    4.12448773444062
Cl       -1.19691052057105    3.64328186755730    4.07524070795261
