65
 energy: -151.240353573737 gnorm: 0.000075080322 xtb: 6.4.1 (a3dbbd7)
C        -1.29698491815832    0.00283927088867    3.53109135414704
C        -0.37072589698673   -1.16578583077578    3.23290886847317
C         0.90112970060438   -0.72974751639479    3.17671717099572
C         0.90849247040422    0.72818965264101    3.18107764507431
C        -0.38817805588359    1.17987342744841    3.27005081655140
C         2.30010723929850   -2.56950865484021    0.56916757009850
C         3.14255072416290   -1.39709306171649    0.57491633030857
C         2.93406657937958   -0.69672088713016    1.78955909295741
C         2.06976923091318   -1.52807143382680    2.71392174237952
C         1.56159875128658   -2.61194926690018    1.79006428959217
C         3.15814656592098    1.41134687539868    0.56196270430265
C         2.32058868803249    2.58368104103791    0.55821152022449
C         1.56135395911298    2.59590648121740    1.78245711228342
C         1.93975374088331    1.43509759954831    2.53875382073124
C         2.90855148797359    0.68908198851522    1.78352453444058
C        -0.34915362487136    3.44400722007518    0.57020562984535
C        -1.71632609848788    2.98639100112880    0.56663514063198
C        -1.96691052399033    2.29296366768966    1.79244449194655
C        -0.80214865466240    2.49351558918734    2.73357354109553
C         0.25349444579576    3.05219557447769    1.79651323852774
C        -3.32977893351549    0.72040537945589    0.56889220484413
C        -3.32800974339302   -0.71621083229946    0.56941072657752
C        -2.74032248529335   -1.16681584539418    1.79095666707160
C        -2.62504216080646    0.00282588466849    2.74708177015197
C        -2.74264365163223    1.17147405090488    1.79001639668487
C        -1.71382994159698   -2.97833316019806    0.56646056452202
C        -0.34911436060891   -3.43444489636125    0.56763093145901
C         0.26151480598345   -3.03832879009605    1.79632152621631
C        -0.80228834131839   -2.49839374211833    2.74117638509621
C        -1.96333006999217   -2.28843095670231    1.79387962538352
C        -0.23841800799390   -3.00706024136513   -1.85320565287361
C         0.75358825572566   -2.28634996546733   -2.61048173443528
C         1.97537019396131   -2.28553373981859   -1.84936967106905
C         1.73244344887423   -3.00348026643667   -0.62269331502967
C         0.37201042778708   -3.44666960195139   -0.62354740402602
C         2.78893840630774   -1.15979321924644   -1.84322810568364
C         2.41632121484131    0.00501971705501   -2.60677324196408
C         2.79511568531711    1.17149727812553   -1.85024255271399
C         3.39741876646221    0.72302486619797   -0.61951476998823
C         3.39202686383411   -0.71273096096149   -0.61707889153846
C         1.98090271986531    2.29571106534311   -1.85256705238400
C         0.75542820048350    2.29402685997168   -2.60950278911688
C        -0.23544056973999    3.01297290475887   -1.84818385777397
C         0.37589289337615    3.45751756079488   -0.62344851392930
C         1.74281793957683    3.01703443828259   -0.62656964840470
C        -1.55596745674644    2.58486352961781   -1.85309474096533
C        -1.93499477037475    1.42017310126445   -2.61140376562144
C        -2.92245224009851    0.69712434383762   -1.85103509993150
C        -3.14119558964604    1.41330697151289   -0.62050005371786
C        -2.30558654015889    2.57477015963352   -0.62222899344482
C        -2.92274283644620   -0.69066941215143   -1.85137152595688
C        -1.93687862631873   -1.41304317811242   -2.61306215000276
C        -1.55709761109105   -2.57784319233180   -1.85476137397119
C        -2.30532107614929   -2.56891603933721   -0.62307636271303
C        -3.14076120660569   -1.40785257205705   -0.62079044568018
C        -0.97965540566645   -0.71602711743147   -3.34386301394162
C        -0.97993109168042    0.72436136380928   -3.34352508663554
C         0.39069822938079    1.17050546741301   -3.34133905193565
C         1.23696341516530    0.00460036941841   -3.34040167153727
C         0.38935859910694   -1.16186633686781   -3.34275765517762
Cl       -1.56019794980531   -0.04479236735501    5.32595205099566
Cl       -4.08423163852686    0.00558588251087    3.80922013401902
Cl        3.00069472480250   -2.17574250842720    4.11962801368883
Cl       -1.19336054479792   -3.64681795998222    4.07691012538140
Cl       -1.20900506803098    3.68234699796603    4.05958244598209
