64
 energy: -146.703216963583 gnorm: 0.000139354895 xtb: 6.4.1 (a3dbbd7)
C        -1.29970057817420    0.01214618967451    3.54670262465236
C        -0.36249755544596   -1.14508549379056    3.24017771585669
C         0.91795688691121   -0.71875437293575    3.20732968959571
C         0.95155574932015    0.73318585853827    3.22925917298633
C        -0.39185292578230    1.19067619794583    3.26908360840561
C         2.30440725581623   -2.56324488465772    0.57222587542638
C         3.15224155911063   -1.39747604788246    0.57523164791716
C         2.94385018399747   -0.69159708057950    1.79474688851872
C         2.07797730502041   -1.52169611697501    2.72188855606370
C         1.56496347860174   -2.59847230797741    1.79331899165289
C         3.16597522105794    1.40791385069318    0.57281724889270
C         2.32444472857913    2.58037432889053    0.57415198611973
C         1.56802039239933    2.58764440864967    1.80072625415236
C         1.93169803203846    1.42865380934682    2.54964184431981
C         2.92896752322938    0.68287050765846    1.78804684815645
C        -0.36768761100464    3.45397400755255    0.57013033738085
C        -1.73980916129512    3.01134321932988    0.56503649411384
C        -1.98743073705316    2.30054527916276    1.78830709863838
C        -0.74758454462034    2.30955973777244    2.56044852419806
C         0.23940838944660    3.01799811560770    1.80023395291291
C        -3.35662180495170    0.72931735272752    0.56771560911532
C        -3.33892152749198   -0.70849138905386    0.56978281606864
C        -2.74313272139999   -1.15383209326902    1.79036351954935
C        -2.62843127796371    0.01400428738022    2.74582707407075
C        -2.78008459785416    1.18281675726430    1.78973669714044
C        -1.71238116664186   -2.96494148566532    0.56997185282342
C        -0.34742580554513   -3.42006469629857    0.57115418201929
C         0.26395643162188   -3.01986701968430    1.79806768122465
C        -0.79634869101623   -2.47355111163035    2.73931155131926
C        -1.96028953889171   -2.27073664338693    1.79475832765002
C        -0.23908623567885   -3.00076126906631   -1.85007408203321
C         0.75179677831339   -2.28242062009689   -2.60796848101347
C         1.97657471408711   -2.28136330038242   -1.84610846770881
C         1.73400950598901   -2.99746079829082   -0.61948775601032
C         0.37255454836400   -3.43784458169248   -0.61959755972802
C         2.79022299741702   -1.15841313862884   -1.84243220095358
C         2.41516854511109    0.00753221791151   -2.60079043955947
C         2.79352056374737    1.17184520860028   -1.83948233803025
C         3.40217662254758    0.72215239373983   -0.61382220548520
C         3.39648848587549   -0.71156863122754   -0.61266376679666
C         1.97394051468858    2.29282236464790   -1.83391623041621
C         0.75043646497201    2.29485483575602   -2.59334198515667
C        -0.24251420713314    3.01539410350280   -1.83827464277608
C         0.36511224394383    3.45703708978315   -0.60869072711254
C         1.73739371729084    3.01006654380552   -0.60636509467610
C        -1.56467027732310    2.59138741952914   -1.84761159472447
C        -1.94019690790844    1.42476796739185   -2.60757202219430
C        -2.92955732272891    0.70288812333483   -1.84973266214904
C        -3.15894857302039    1.42418225922592   -0.62198408309494
C        -2.32493740852657    2.58987889141376   -0.62435213604505
C        -2.92811010987556   -0.68397512618310   -1.84954606084706
C        -1.93870193845553   -1.40759371664068   -2.61012123193046
C        -1.55839526255814   -2.57095469683711   -1.85134547155655
C        -2.30576868003896   -2.55927652882939   -0.61945986811266
C        -3.14465595735195   -1.40045056582103   -0.61888128773573
C        -0.98250616432487   -0.71187935346643   -3.33956647961116
C        -0.98274239288311    0.72989072856012   -3.33592416818484
C         0.38756434413085    1.17409589154422   -3.33073022822891
C         1.23466535315877    0.00891588229296   -3.33296212980616
C         0.38765558580896   -1.15752924194118   -3.33807314855569
Cl       -1.57718793049468   -0.03272178761745    5.33457881837489
Cl       -4.08935679256109    0.00426815181673    3.81109834179628
Cl        3.01837439194564   -2.18603930752716    4.11497227480261
Cl       -1.18861964324424   -3.61726350416094    4.08303533598564
