62
 energy: -137.538687519784 gnorm: 0.000103445187 xtb: 6.4.1 (a3dbbd7)
C        -1.30849763901762    0.00486673603864    3.53125333683315
C        -0.37739497803294   -1.16837889092819    3.30455945485024
C         0.96418683713580   -0.71161260623708    3.27227537608499
C         0.96510549005722    0.72767388543999    3.27901819455811
C        -0.38474420906515    1.18271426387059    3.31471904392821
C         2.33339695371076   -2.59777881704207    0.58175061186074
C         3.38914128533469   -1.51579223793917    0.62909210673732
C         2.93954089149932   -0.69224404530691    1.81840914617802
C         1.94019280526917   -1.39756321501177    2.53489220638773
C         1.56604746895625   -2.56578696575666    1.78199153517527
C         3.18102267958935    1.41614158195800    0.58333458874357
C         2.32705273230962    2.57407294376664    0.58035710628140
C         1.56774689804933    2.57411261448419    1.80514121870922
C         1.93745089391619    1.41500574876374    2.55669994199367
C         2.93248560809466    0.68926600705193    1.80429433663581
C        -0.36756367112270    3.45326290456928    0.58882930679276
C        -1.74095066046737    3.00841203153543    0.59133308935906
C        -1.98615530435684    2.30476209861327    1.81565365746734
C        -0.74673691539600    2.28246189280062    2.56851342046085
C         0.24315107342166    3.00105849961925    1.80628650507996
C        -3.40256692880725    0.72466042252648    0.57578899793473
C        -3.40427317593732   -0.71233304855860    0.57673113298774
C        -2.78122022911103   -1.14247155250141    1.81228051352017
C        -2.43472241760793    0.00658467346819    2.56084242700166
C        -2.78290951743661    1.15978661450722    1.80797713495885
C        -1.74156181515150   -2.99911730571012    0.59085568653845
C        -0.37067949687763   -3.44332210029969    0.58874308712110
C         0.24219856526662   -2.99783332260386    1.80157789207591
C        -0.74635831636075   -2.27679989953009    2.56693673360752
C        -1.97975203801054   -2.28840916308278    1.81895949947896
C        -0.24752898984659   -3.00636243558537   -1.81784072322087
C         0.74742251552501   -2.28666587196987   -2.57691937286969
C         1.97501574480688   -2.29649429394041   -1.83723651891369
C         1.73508222277984   -3.00008445239039   -0.59190802885858
C         0.36293572638991   -3.44105778741208   -0.59389784393493
C         2.77881286884771   -1.15663261420337   -1.81547540239331
C         2.39670208287591    0.00604663766829   -2.58604129710795
C         2.77630741009352    1.16858399585748   -1.83148131056369
C         3.38618896319765    0.70327951424641   -0.60211866439300
C         3.40480579788211   -0.71094974836722   -0.62073504343459
C         1.96418717670544    2.28875945645541   -1.82860539693862
C         0.73864251643034    2.29307040358590   -2.58625400791143
C        -0.24967032399009    3.01228088671046   -1.82283441070228
C         0.36515471911415    3.45355339654965   -0.59412221515024
C         1.73124030148916    3.01197442649297   -0.59740381540376
C        -1.57044221339861    2.58342125856088   -1.82123561877544
C        -1.95157093564748    1.41858602419163   -2.58375546233970
C        -2.94683366399091    0.69920344281535   -1.82876241519349
C        -3.17812114402575    1.41982152440435   -0.60305386255894
C        -2.32896111878201    2.58433521902578   -0.59831955302283
C        -2.94627591872788   -0.68955843923693   -1.82658750528275
C        -1.95232019305018   -1.41286720076270   -2.57872516653051
C        -1.57125902802165   -2.57742179515014   -1.81644587122854
C        -2.32904234999027   -2.57763372191940   -0.59703787922626
C        -3.17862222844172   -1.40657689788621   -0.59861793042807
C        -0.99579556223057   -0.71946748733992   -3.30853202250984
C        -0.99827543890690    0.72397047384302   -3.31292885570189
C         0.37227126808558    1.17079727707824   -3.31765068617758
C         1.21750208182567    0.00429299539523   -3.31595853532671
C         0.37300216107511   -1.16360782883990   -3.31137237971163
Cl       -1.94478208063817   -0.02615733053416    5.25048913932312
Cl        5.04758715429412   -2.22712508769223    0.95336062465241
