156
 energy: -518.868276476354 gnorm: 0.424381312303 xtb: 6.4.1 (a3dbbd7)
C        -1.26760473157296    0.02496593352715    3.50115463932177
C        -0.39928676519495   -1.23538165802862    3.47096909314832
C         1.05859137959871   -0.76664237254988    3.48383301175661
C         1.04378111813816    0.77517287874802    3.46960130434925
C        -0.36367343060112    1.17282721041506    3.24460917836213
C         2.28594852259786   -2.57625658478484    0.59495485854863
C         3.32120774154598   -1.50077471148544    0.65059433134980
C         2.91437523279243   -0.69096162014784    1.83423220166380
C         1.94042600432561   -1.41354809183182    2.49845641692090
C         1.58066620141622   -2.54534234836756    1.79420558731250
C         3.29807970702070    1.47747314972430    0.63270293161472
C         2.28182165958169    2.55679090522293    0.61731122736924
C         1.58322769963504    2.52886890216988    1.76684201277130
C         1.97370643785332    1.40633216774173    2.52434531189247
C         2.91615726377817    0.68090382301736    1.83998701777228
C        -0.34131541467585    3.39736514441659    0.56526957419361
C        -1.81226249608643    3.17358285150492    0.65512246605015
C        -1.95547776123587    2.27521216731986    1.83664073042807
C        -0.74675680598229    2.25020136614190    2.54590739460145
C         0.25630014897618    3.15881040233716    1.91011929806106
C        -3.33357067929806    0.70678647247559    0.62342654083643
C        -3.54747198676142   -0.75644353137613    0.62899997973532
C        -2.77031843487342   -1.19280638760606    1.80887115538730
C        -2.55818711533983   -0.00712938082739    2.68110245558844
C        -2.74779101236511    1.15082114008817    1.75979437301905
C        -1.75070876377644   -3.03777177944580    0.57410331915881
C        -0.39155494393643   -3.45910679041325    0.56303780398964
C         0.24135066863066   -3.15451832665264    1.88794085777690
C        -0.77081401929089   -2.28345809728010    2.51313075428360
C        -1.95461670162531   -2.28499653985098    1.80104607028517
C        -0.23477491297467   -3.17365076905567   -1.89308712336443
C         0.73298474912931   -2.27748179305019   -2.53052456928518
C         2.03735626018228   -2.43602161150750   -1.88639987559321
C         1.70753322114610   -3.01243706173225   -0.54849602329371
C         0.36758485693200   -3.44064670823035   -0.55114515176939
C         2.94771039308186   -1.20952879359604   -1.94261693966456
C         2.35979584060800    0.00291367954984   -2.57255588468077
C         2.87856190012984    1.20417819872212   -1.88000786197404
C         3.36943207093947    0.72158246203275   -0.59408386397833
C         3.59223311980481   -0.72961343709426   -0.62956513660780
C         1.90915298670563    2.29114973053316   -1.82200345368047
C         0.76392875511047    2.25957514473711   -2.55009959300772
C        -0.24735717582419    3.15690487039740   -1.91107315593876
C         0.33605601253675    3.41099255588967   -0.56135571040581
C         1.80561443083210    3.15914155873160   -0.62609382906107
C        -1.54132571613548    2.47512551338077   -1.79882199979286
C        -1.89581737482829    1.41057930018350   -2.49318285335073
C        -3.08727868697485    0.72139133720638   -1.91764353415301
C        -3.35694842345792    1.48089158964636   -0.61506290575338
C        -2.45562759390352    2.72263858467756   -0.65100663324015
C        -2.91067586804417   -0.73160393210291   -1.77682637539980
C        -1.91577996216436   -1.38070187125672   -2.55231037992032
C        -1.67983947569553   -2.70882538321863   -1.90215589138380
C        -2.32713365022518   -2.57232271152527   -0.56263547601067
C        -3.12349075464267   -1.41327062302780   -0.62250399048882
C        -1.00415474918794   -0.72211194768134   -3.26162345202739
C        -1.02267505699771    0.75431080715207   -3.47731457299502
C         0.40181389718970    1.16711960703725   -3.31157031498203
C         1.21398599496385    0.02634048278246   -3.26398211243272
C         0.38894608498916   -1.20818302432554   -3.45292907031666
C        -1.75706386641319    0.21590746951115    4.97721177463007
F        -0.98555688899189    0.42917146689537    5.99933521580236
F        -2.47716481365230   -0.71041289399816    5.53028462984728
F        -2.24542220666821    1.43033925978128    5.19667620003694
C        -0.65871205033936   -1.94581079119673    4.82871886294150
F        -0.54822860247617   -1.41548141135200    5.98661459244429
F        -1.88412759061114   -2.49452423313900    4.85594793105649
F        -0.01373403133864   -3.03596271262971    5.07684798744652
C         1.69375655428952   -1.19922687414290    4.81312501925452
F         1.31657770332358   -0.80557130255500    5.97491671566102
F         1.82573824054988   -2.49788905246951    4.95529964454516
F         2.99320806957648   -0.91759464661631    4.88314827013201
C         1.51315359794633    1.27055328170339    4.84388430576969
F         0.77393678127208    1.06234852050203    5.85454914393236
F         2.77540252130674    1.01652027293066    5.07185860802537
F         1.48496333652718    2.57483388570728    4.93800024387286
C         4.60358160512963   -2.23026148324425    1.07931384803081
F         4.43809704617172   -2.89657894438516    2.21162917711935
F         4.81473224344953   -3.27238651937462    0.28297307436042
F         5.52097541589731   -1.41201348924801    1.53853986292760
C         4.66304059769297    2.11616814076896    0.94739235128527
F         4.58112077051183    2.84107525491305    2.04254993391032
F         5.10043095158962    2.84514935326583   -0.02929352460058
F         5.56906856039245    1.23143543600044    1.17965251909391
C        -2.53103145011593    4.47994356711502    1.03042723236454
F        -2.26601716942029    5.05392878478136    2.14962758044598
F        -2.08211562888952    5.50433672467047    0.29662544247801
F        -3.78148021754477    4.20153059639201    1.46564527618613
C         0.43939252866287    4.43116644619801    2.70359295469811
F        -0.61412778623591    5.07664760525740    3.02699536127930
F         1.20738194007064    5.27140032170068    2.04959909738152
F         0.91985951383931    4.19995770891211    3.89040227932714
C        -5.02163426663770   -1.13141345217356    0.80325679574484
F        -5.65773094616105   -0.53194686119324    1.73067008542333
F        -5.74162917728108   -0.83521225892512   -0.23830128406871
F        -5.12542597689311   -2.43008762230833    1.00265789442071
C        -3.70401224573026    0.01744470065981    3.71771893326398
F        -4.92496960137371    0.10181045234823    3.32026755049301
F        -3.83404206711098   -1.22409872741913    4.22518313543057
F        -3.85621889514958    1.21111389721073    4.30229734148348
C         0.35395836643173   -4.47012280334920    2.64755430240150
F        -0.85552620280831   -4.99061725817833    2.76276207958458
F         1.16191060423399   -5.28693095776651    1.99712538780164
F         0.90334564902271   -4.31248191580085    3.81049316423794
C        -0.28110820086615   -4.52786507609033   -2.63929261047537
F         0.75311869704628   -5.26979014566542   -2.72726450130957
F        -0.44833242488640   -4.41479291308099   -3.93156993633464
F        -0.87830701408190   -5.47800879826815   -1.91818285429864
C         2.85875545766892   -3.54269190071288   -2.61865537902987
F         2.46123912640014   -4.74834186672248   -2.71881821658544
F         2.90591138241571   -3.39864273253779   -3.92129351918814
F         3.83467724200307   -3.97485762783352   -1.78864068187544
C         4.10918419482570   -1.61758597608135   -2.89354826791011
F         5.01333153481061   -0.80132797227375   -3.31262514797365
F         3.72525940368005   -1.70935497200017   -4.17151701317682
F         4.89521195889614   -2.60721977196864   -2.62723313284788
C         4.04921894670636    1.80904384405090   -2.72759513721593
F         5.06634716178953    1.10021514299509   -2.97326400852711
F         3.60743829725641    2.12864411730063   -3.92656823674602
F         4.62485638019803    2.81049247591602   -2.14694767533279
C         5.14265167088021   -0.89425243080637   -0.83988326145137
F         5.79203316802457   -0.22370704001264   -1.74135648413896
F         5.69408256731294   -2.05073427105120   -0.96888879931775
F         5.93184516149358   -0.33330536197159    0.03769429020571
C        -0.39207277016689    4.42620141442734   -2.72002484884590
F         0.71216013558241    5.02955979628120   -3.01438084467938
F        -0.90271461256470    4.17508709225369   -3.89913100575198
F        -1.05132264841385    5.33760762640448   -2.07569017971919
C         2.57477470991200    4.45633091209054   -0.82874800082396
F         2.33901724592039    5.06281455424417   -1.94079065798504
F         3.85814043097640    4.29394207547376   -0.91094004320936
F         2.34566543321943    5.28455094942643    0.15583302871131
C        -4.30488629863006    0.91849097850111   -2.83049736081375
F        -4.39074005395686    2.12543789016654   -3.32311882030831
F        -4.22876120274398    0.26460305619783   -3.96222966566365
F        -5.36979556981661    0.30209334626330   -2.36486381176453
C        -4.80351992179579    1.99430331843773   -0.66206654449438
F        -5.22546190642237    2.72349799736288   -1.62738586543206
F        -5.76225907554371    1.13052497578835   -0.66102601533860
F        -5.15674420502704    2.59862989448688    0.46652559672346
C        -3.37835880879082    3.89331240517947   -1.11029212612086
F        -3.84242854254751    3.87331266361854   -2.37826348515291
F        -2.87422187820472    5.04417144157448   -1.35736765530730
F        -4.40173129483526    4.21331764889933   -0.38926463667883
C        -2.52970998708753   -3.71651713674136   -2.66822223803461
F        -3.80539427210782   -3.34337668486036   -2.70620160106457
F        -2.28901121495499   -3.70738430871026   -3.95743384258494
F        -2.70832595411493   -4.84198694585558   -2.01605026384571
C        -1.48119158860849    1.11680959263108   -4.87358895513519
F        -0.71098957962096    0.70589699387039   -5.82356257799678
F        -2.63789178176930    0.61035712431217   -5.16302340190851
F        -1.47188348423248    2.41554104218978   -5.04485281901981
C         0.57629528084903   -1.73382278659322   -4.88156384999366
F         0.41089680793086   -0.87908410434594   -5.82861203793516
F        -0.26700120440776   -2.69505994328552   -5.13083021925968
F         1.80598531933288   -2.08190445874869   -5.10964645931963
