63
 energy: -142.117788837890 gnorm: 0.000090471300 xtb: 6.4.1 (a3dbbd7)
C        -1.31354438189484    0.00787041607987    3.57504814796303
C        -0.38122893561978   -1.27165018355564    3.58525582325967
C         0.99662266638902   -0.72574557014470    3.27423520162641
C         0.97520195246635    0.69849803867122    3.24275516722157
C        -0.36944580099088    1.15035578278753    3.28056641448538
C         2.34516365126701   -2.58147953579753    0.56729439998561
C         3.15464839465100   -1.40930625103444    0.56459163986911
C         2.90925236658897   -0.68762503797027    1.78755701708571
C         1.94762458186246   -1.40474575953947    2.56303760088771
C         1.70497056511353   -2.75859383423161    1.93221305452521
C         3.18173274700718    1.42793269402947    0.56606597273278
C         2.33638582013926    2.59588442122547    0.57061527768009
C         1.57729350061554    2.58344648475718    1.79553947075365
C         1.94674057143244    1.41352118588682    2.53617492307075
C         2.93347773485400    0.70192427854540    1.78661727515338
C        -0.36427756280974    3.45105740736379    0.58049213979076
C        -1.73810918699933    3.00520098179410    0.58512439950688
C        -1.97109753404799    2.29234006531220    1.80523210457127
C        -0.73075450925425    2.26479228310175    2.55506452339622
C         0.25141151071627    2.99441103953755    1.79820823032917
C        -3.39203814358118    0.71799374414994    0.57134285219733
C        -3.39417114048492   -0.71600925790914    0.56608918900812
C        -2.75613521871811   -1.14602280575393    1.79488515308646
C        -2.39479629488302   -0.00771477614098    2.54789262362542
C        -2.76199227018338    1.14455827738219    1.80252467723372
C        -1.73062054578459   -2.99432297133558    0.56328673935771
C        -0.35968740757169   -3.42454443191881    0.56672389217395
C         0.23777153573191   -2.96380703725238    1.80099302118725
C        -0.70561839402182   -2.26586486630868    2.51829074551272
C        -1.94083738193106   -2.27400831483394    1.78536580628054
C        -0.24877936496777   -3.00431804323959   -1.83237758727009
C         0.74079282281413   -2.27480546694196   -2.58265353293701
C         1.96810503838256   -2.27055324940118   -1.82370446255805
C         1.74470097383721   -2.98888206408576   -0.60086654514978
C         0.36032536986355   -3.44819942427632   -0.60988863962012
C         2.78996573358359   -1.14880429466636   -1.83665260068192
C         2.40919951107828    0.01559466225955   -2.59499988346260
C         2.78901156710660    1.18163332081656   -1.83797293196897
C         3.40287199528882    0.73453466122130   -0.61470750691784
C         3.39743580530396   -0.70815656924784   -0.61554686751868
C         1.96881621226279    2.30441612373291   -1.83329039645300
C         0.73962544190969    2.30157577725482   -2.58586231790672
C        -0.25099993956944    3.01985697628259   -1.82808922610146
C         0.36347762915983    3.46178011699623   -0.60105385799618
C         1.73802736386933    3.02351471246302   -0.60737424773218
C        -1.57326560876919    2.58732722327421   -1.82532086926866
C        -1.95229202453896    1.42418045052855   -2.58809239201504
C        -2.94769026120731    0.70100910991877   -1.83416260924789
C        -3.17792391933561    1.41829606754043   -0.60595941310730
C        -2.33091741260059    2.58600202846171   -0.60373638610988
C        -2.94896903099927   -0.68742140223495   -1.83913986430396
C        -1.95350415158754   -1.40883353644374   -2.59589396861788
C        -1.57696132418506   -2.57722604333784   -1.83979098330162
C        -2.33188849289948   -2.57906364237641   -0.61981684636716
C        -3.17996049310774   -1.40945633874028   -0.61448455062273
C        -0.99678759342656   -0.71173291656683   -3.31880333846155
C        -0.99666273753667    0.73018125445901   -3.31531044221648
C         0.37493764461299    1.17580983677230   -3.31513725205618
C         1.22175754633410    0.01348351684984   -3.31639966729201
C         0.37587168979659   -1.15463605934917   -3.31465187301710
Cl       -2.10356318200789    0.30400591569048    5.18591640393959
Cl       -0.36438688578182   -2.11924396756074    5.17659880084987
Cl        2.49031185739421   -4.10119631949908    2.86269587434883
