108
 energy: -324.480690420828 gnorm: 0.076416839408 xtb: 6.4.1 (a3dbbd7)
C        -1.32190024118472    0.00565763939386    3.56852888262219
C        -0.39266542684433   -1.17118850224455    3.39178199824466
C         1.04457200302548   -0.76043583822882    3.56079907099174
C         0.97593623338789    0.72820526111244    3.27713381277632
C        -0.36865033418609    1.16033115097075    3.29845464398217
C         2.51195816830880   -2.79221621269722    0.66154277082644
C         3.13717480178586   -1.42299707241418    0.57364681940928
C         2.83594970381980   -0.70873552585645    1.71122820976580
C         1.88345165761383   -1.41910954703329    2.50377810490334
C         1.51295082557745   -2.55301529985054    1.79398440655032
C         3.15181221320691    1.41829047865499    0.58152473478555
C         2.31397566588464    2.58766112783147    0.56152967706301
C         1.67097252197129    2.75202161388552    1.92372059459490
C         1.94128311061188    1.40086919785543    2.56319550381858
C         2.90323999150605    0.71637299801401    1.77269531202233
C        -0.39094070337466    3.42778519893022    0.58876303462367
C        -1.75407208015150    3.02596610825613    0.57779251191498
C        -2.10492859335128    2.46015513668637    1.94129302563474
C        -0.72728206250971    2.26803451334010    2.54379644882989
C         0.20588444604081    2.98988603502668    1.79759774501563
C        -3.38892595899088    0.70425991530271    0.56809113716264
C        -3.42779314062306   -0.73846901188451    0.57320949280807
C        -2.78698990729058   -1.16048660116740    1.77422633851382
C        -2.39872686613343    0.02497736522495    2.51925293606428
C        -2.75526476184870    1.12497984260901    1.80542521179219
C        -1.72793840633976   -2.98736820333641    0.58285465956171
C        -0.36396422320002   -3.43650167939662    0.57818902245704
C         0.23555309354438   -3.04604923179415    1.80131591474759
C        -0.80253894515926   -2.43310317146305    2.72780240243339
C        -1.98743403822710   -2.28181348608550    1.78696887490359
C        -0.23387869314362   -3.00960944089424   -1.80385826366532
C         0.80693197272663   -2.56302101168987   -2.82329520451431
C         1.97931090184813   -2.36533663951304   -1.84279038203834
C         1.88348154704221   -3.36290903898056   -0.68248351051327
C         0.36410805724302   -3.45805051251264   -0.61733924983162
C         2.71574793025807   -1.24355078713073   -1.80809155049616
C         2.32755978454669   -0.03856607300023   -2.53094465514567
C         2.74437324005564    1.11714711538348   -1.78431687186482
C         3.34796531718062    0.70829143804069   -0.62627330179634
C         3.61957949300665   -0.79263133442369   -0.67156358135155
C         2.08667110318543    2.45408792545190   -1.94132695154358
C         0.72216499433278    2.30017701222996   -2.57484494366016
C        -0.24815936931863    3.00795336437093   -1.80737446598140
C         0.35402015149871    3.45836547402884   -0.60464266052668
C         1.72536847774984    3.02450201912168   -0.58118627214867
C        -1.58422089098809    2.55678877517719   -1.80256211013511
C        -1.96085320720496    1.43129388896865   -2.55604571484305
C        -3.16852186554360    0.75681649834832   -1.94243362393430
C        -3.21113034205323    1.42018807922947   -0.57907772431332
C        -2.33801086895448    2.56790358354111   -0.57789377917494
C        -2.95496476540997   -0.72093184716340   -1.82514621388935
C        -1.95013425682508   -1.40336412036310   -2.55557814097124
C        -1.55845811387301   -2.59283043325993   -1.81188703015904
C        -2.31942262508774   -2.58429115342677   -0.61417081047391
C        -3.17791083477714   -1.41955910611973   -0.62620301109503
C        -1.00551543530742   -0.71472785948500   -3.27890454942943
C        -0.99869811286756    0.71024411918025   -3.24520989065080
C         0.36034018549917    1.16130814266112   -3.24591827695407
C         1.20053993611931   -0.01108463524388   -3.27844882311532
C         0.37997579872865   -1.23766457541104   -3.61006176945602
C        -2.00297499168180    0.08045370298077    4.96936366675390
F        -1.12907855973178    0.16147473341433    5.96159223531660
F        -2.78173614251711   -0.98062030484169    5.17072776842361
F        -2.79474458292448    1.14307499144866    5.05321211330715
C         2.55098391368194   -4.76108990430428   -0.93847411061722
F         2.13157249368967   -5.57535867363884   -1.89886786562904
F         3.79578234562319   -4.50198316410383   -1.31505677527260
F         2.22907894083933   -5.54551839809173    0.11281002818532
C         1.70068244180784   -1.06759661955001    4.94500442383921
F         1.08029501486284   -0.51125664770515    5.97558166080189
F         1.73854107344665   -2.38274943046073    5.15064304044915
F         2.95890134854593   -0.62186088351328    4.94281684377393
C         3.62400961189831   -3.66532954987792    1.37252167837729
F         4.13170798164475   -3.01164731448004    2.45369304761275
F         4.65075498182123   -3.94452806782361    0.60448722616175
F         3.18763082018539   -4.79459483267396    1.84888970386626
C         5.11875435843252   -1.03456530171427   -0.95822773646951
F         5.51092117392809   -0.35504883088567   -2.03787824488745
F         5.38262293025039   -2.31853219941038   -1.16978800712228
F         5.85530383980137   -0.61643920075345    0.07117787855922
C         2.95753943670220    3.44873542686271   -2.73231953046883
F         2.33983349290140    4.62556745885606   -2.84815579335487
F         3.20557189325562    2.99719053884786   -3.95862249122033
F         4.12127839075351    3.65981126999702   -2.12142942307401
C         2.36598474067146    3.87457205051299    2.72450739144972
F         3.67185100966504    3.64420593002235    2.83827067312669
F         2.21097315569394    5.05307660335800    2.12177182783253
F         1.85685178233232    3.96757244715162    3.95052173127731
C        -4.44098654944727    1.07050119697033   -2.74183941937198
F        -4.62391084505960    2.38622705221425   -2.85679066700174
F        -4.36781106566007    0.55810730842327   -3.96844118128864
F        -5.51220835678849    0.55807966187634   -2.13968367315668
C        -2.95733639281837    3.50210374667632    2.68850331379623
F        -2.31072594799273    4.66933459686129    2.75183036187731
F        -4.10555529694096    3.70280754045580    2.03720678181721
F        -3.26020351312149    3.15764023793989    3.92821288400039
C         0.42514242381433   -1.27846421352566   -5.17703610012663
F         0.10840941870990   -0.05290636980006   -5.69677321589148
F        -0.45619821545993   -2.08143169761637   -5.70887638417686
F         1.60509769982568   -1.56830223495961   -5.63692731877906
C        -1.15028517579390   -3.54601698451885    3.77559583961027
F        -1.51427381927042   -4.66942607126495    3.15869478087236
F        -0.11292611540464   -3.82087773329467    4.55094203110554
F        -2.16049307398153   -3.18764717798611    4.55583040644088
C         1.06054446654377   -3.66708279689716   -3.91924775858676
F         1.27538055426075   -4.93953895635874   -3.61070028276736
F        -0.10016221452455   -3.84467919939945   -4.58434190822085
F         2.19474290129872   -3.33983948419530   -4.52687081729585
