63
 energy: -142.113389702908 gnorm: 0.000116749354 xtb: 6.4.1 (a3dbbd7)
C        -1.30569377802743    0.00696793353286    3.54823387934591
C        -0.37647695705959   -1.16853604763582    3.30489406756964
C         0.97170976838185   -0.71441327021255    3.27154144292196
C         0.97042634032032    0.72105270768673    3.27277206430655
C        -0.38144885477185    1.18391215596165    3.30731687960976
C         2.33464316508341   -2.59924670259466    0.58197543217678
C         3.39639552263492   -1.52181677272278    0.62717441366272
C         2.95150603107707   -0.69666076394798    1.81518429258430
C         1.94465466665357   -1.40052054449254    2.53590136698829
C         1.57069366640279   -2.56595527685556    1.78470970330586
C         3.18580854535578    1.41684142962818    0.57491794488819
C         2.33470879848375    2.56734876392899    0.57285694359867
C         1.56877958909990    2.55975685120907    1.79541100347132
C         1.94114921477583    1.40211998360843    2.54658818610083
C         2.93826087840800    0.68006023379156    1.79960087346110
C        -0.37175419593683    3.42845995942421    0.57891228976430
C        -1.73320888139431    3.01915958983084    0.58183032614685
C        -2.10093669013860    2.46533642595776    1.94623325580503
C        -0.73762008302061    2.28754475205629    2.58337642994079
C         0.24240494244966    2.97446439524379    1.80215643609208
C        -3.38075524830586    0.70625465441372    0.57649756392885
C        -3.39643421842823   -0.72829657217213    0.56953165182012
C        -2.77611567171418   -1.15957215802194    1.79086042862603
C        -2.39785395231561    0.02710028674535    2.53487961607994
C        -2.75502508818499    1.13299552229024    1.81302838305222
C        -1.74527792041725   -3.01030084882709    0.58262276672413
C        -0.37213739670499   -3.44380505304326    0.58581033849236
C         0.24191139778017   -2.98967517134638    1.80142318717547
C        -0.73828420738853   -2.27033766758534    2.56450640078666
C        -1.98063759118152   -2.28568624052038    1.80152773876292
C        -0.24743880813218   -3.00439325849730   -1.82101066085106
C         0.74937144160803   -2.28632217589602   -2.57920650196374
C         1.96979238758013   -2.29192588106296   -1.83336126018232
C         1.73421142799426   -3.00155419152238   -0.58972278753103
C         0.36323308785851   -3.44246422936890   -0.59193310848535
C         2.78062082897977   -1.15631590823255   -1.81472102164978
C         2.40200910105386    0.00490922624600   -2.59022302720786
C         2.78188753292495    1.16497178034744   -1.83753552298517
C         3.39089449532543    0.70164855259450   -0.60750831991658
C         3.40897888252694   -0.71506162682288   -0.62070083117060
C         1.97259059469981    2.29100099545161   -1.83618662809484
C         0.74506492985499    2.29271810391624   -2.59428252047785
C        -0.24237000901220    3.00865552281190   -1.82757831334444
C         0.37023208143096    3.44328622295612   -0.60371401792094
C         1.73869038929062    3.00784337241791   -0.60830521104299
C        -1.56123158621773    2.57212495153543   -1.81267333435843
C        -1.94443670651850    1.40978351556854   -2.57573106516099
C        -2.93966860278933    0.68849312492539   -1.82233035030078
C        -3.17130771458487    1.40181667636081   -0.59775696428266
C        -2.31105573922912    2.57613612654613   -0.58719915272848
C        -2.94329615380816   -0.70391915411905   -1.83474859770582
C        -1.95102133671736   -1.42021450457082   -2.59139801306810
C        -1.56898194105529   -2.58617364427146   -1.82916272072357
C        -2.33513207004145   -2.58989151705117   -0.60744096453032
C        -3.18141981846083   -1.42901818282595   -0.61288390363596
C        -0.99167740766640   -0.72301577099279   -3.31608009040253
C        -0.99440282447236    0.72054466770761   -3.31352753776803
C         0.37688935662550    1.16855215185977   -3.32088120315979
C         1.22139528312578    0.00218120983588   -3.32062798966181
C         0.37643228168216   -1.16423505874945   -3.31966926137130
Cl       -1.96376328150661   -0.01424003630941    5.23654197749554
Cl       -3.14249199193862    3.62457727524910    2.87061745565069
Cl        5.04961972505727   -2.25720937970518    0.93861848643475
