63
 energy: -142.118234481569 gnorm: 0.000045004282 xtb: 6.4.1 (a3dbbd7)
C        -1.30923472146840    0.00859314798828    3.58628223896354
C        -0.38544224370284   -1.15669728038641    3.29322650613613
C         0.97116447436599   -0.71186260532543    3.27467152077389
C         0.97148839379666    0.72248656930938    3.27091014921080
C        -0.38413192284851    1.17239956342944    3.29087125766583
C         2.32863204191054   -2.57132149563469    0.57075901463412
C         3.17475941101497   -1.40628192000463    0.57585474588398
C         2.93844533857130   -0.68749399975972    1.80091496734411
C         1.94072273801379   -1.41302776482009    2.55232792779587
C         1.57694565143129   -2.57292905039444    1.81100016975528
C         3.18306878389391    1.42321843589106    0.58167393366527
C         2.33439153805743    2.58705850519848    0.58278558616937
C         1.57343655724535    2.57988236482972    1.80705961778102
C         1.94571275984470    1.42002216388205    2.55800014776747
C         2.94252901081026    0.69802695198061    1.80498927601400
C        -0.36427238393980    3.44034277967768    0.58134458577976
C        -1.73327308115763    2.99679785600071    0.57743562413681
C        -1.97948557121843    2.27946511268426    1.79762778529994
C        -0.73846900057636    2.27946553918342    2.56836060731379
C         0.24612495466944    2.99679825876863    1.80673968940827
C        -3.36727225575073    0.72248239749621    0.57632153334372
C        -3.37050609935178   -0.71186793673371    0.57827238251670
C        -2.78574944700030   -1.15670788684492    1.80251808861114
C        -2.63890830450746    0.00858353060819    2.76049175445113
C        -2.78420199497997    1.17239524325006    1.80030603778237
C        -1.71491704434056   -2.97602858311560    0.57694023657688
C        -0.37276444705311   -3.43153884277295    0.59500926176836
C         0.23841859052500   -2.97602627173828    1.79006333497362
C        -0.74214491254361   -2.25943196398024    2.56823820066871
C        -1.97776095580244   -2.25943799368883    1.80086018626622
C        -0.24177837559596   -3.00850958561808   -1.84432869832660
C         0.74064649523287   -2.27424088715011   -2.56654140761487
C         1.96757110093668   -2.27424025210028   -1.80455747986620
C         1.75571739884522   -3.00850893307510   -0.60377961343953
C         0.40023602325565   -3.68005377519834   -0.64965247592985
C         2.79453745337595   -1.15227846800741   -1.82017321935274
C         2.41664112226657    0.01168793653396   -2.58066094374545
C         2.79803409710497    1.17836495800782   -1.82571062514786
C         3.41358500809122    0.73252593834069   -0.60079800064259
C         3.41044899129427   -0.70904231007698   -0.60307891250100
C         1.97928303967770    2.30018454777110   -1.82394487856224
C         0.75283278928188    2.30018401208866   -2.58563606827873
C        -0.24007069002193    3.01596536323254   -1.82953218160435
C         0.36862850124636    3.45527325901687   -0.59875406030171
C         1.74170374110464    3.01597092437391   -0.59875290124934
C        -1.56190657224423    2.58704737655943   -1.83700844229590
C        -1.93714007704156    1.42321597808413   -2.59823461749908
C        -2.92704887451285    0.69802514336626   -1.84031501998237
C        -3.16012403966738    1.42001867502667   -0.61298139506152
C        -2.32197062217929    2.57988043308425   -0.61218354774152
C        -2.92158695889071   -0.68749566169523   -1.83846568421182
C        -1.92823960101856   -1.40628280620155   -2.59337100822034
C        -1.54857720656363   -2.57132355303268   -1.83718957911502
C        -2.32706370891178   -2.57293161244280   -0.61359293374107
C        -3.15283249637719   -1.41303083343150   -0.61103234896009
C        -0.97596267644115   -0.70904323990879   -3.32726677778912
C        -0.97939904801680    0.73252397867758   -3.32906434412432
C         0.39145570580888    1.17836450420253   -3.32031861709254
C         1.23724421176642    0.01168872547158   -3.31312538630857
C         0.38804240977187   -1.15227832030854   -3.31472973736324
Cl       -1.61385395147687    0.01107554091017    5.37111585339412
Cl       -4.10374645898321    0.01108356954466    3.82476304288790
Cl        0.58020498537257   -5.48295844936431   -0.93943293568268
