63
 energy: -142.112742542281 gnorm: 0.000107353614 xtb: 6.4.1 (a3dbbd7)
C        -1.30034259189846    0.00581994473193    3.54784866410476
C        -0.37242606816362   -1.17047268044045    3.30964403663780
C         0.97704567176216   -0.71829696863096    3.27395848687066
C         0.97584124677705    0.72404900846411    3.27248430894074
C        -0.37621749456363    1.18200561655233    3.30424660624371
C         2.33288906634346   -2.58944709846932    0.58374954656602
C         3.17770889525488   -1.40739845847822    0.57224992886426
C         2.93766269729046   -0.69089134283685    1.79570996673167
C         1.94562216141413   -1.41135836136168    2.55061107680070
C         1.57507022543194   -2.57674977755951    1.79939653680396
C         3.17709107282509    1.41164553453153    0.58311326014352
C         2.32915772173209    2.57684563952549    0.58145270618005
C         1.57019536450738    2.57312423189910    1.80606492553629
C         1.94744805590161    1.41589469782182    2.55856826682537
C         2.94429703476953    0.69750231204689    1.80452454484651
C        -0.37296361905726    3.43358012508980    0.58495414570361
C        -1.73588126257530    3.02144225346746    0.58731140341521
C        -2.10161344352111    2.46563517380408    1.95129513981352
C        -0.73689325469681    2.29002752506637    2.58641924273289
C         0.24057905092892    2.98251082881963    1.80977768604632
C        -3.37884407724158    0.70604740740868    0.57949981762319
C        -3.39356873805988   -0.73049491520218    0.57176276175897
C        -2.77131148803357   -1.16167209960035    1.79311423152437
C        -2.39290630095144    0.02550302527920    2.53532795717495
C        -2.75283805720755    1.13213132535704    1.81586448392152
C        -1.74555933098424   -3.01311561884004    0.58622584357834
C        -0.37249312724599   -3.44916892056272    0.58757535352219
C         0.24390476384453   -2.99598035389720    1.81053324451372
C        -0.73363547720729   -2.27411792013335    2.56761525374228
C        -1.97792042342822   -2.28835025894024    1.80486643711706
C        -0.25592757846333   -3.01187918762957   -1.81521257817600
C         0.75028513909905   -2.28446561386912   -2.56069510976421
C         1.95995264337980   -2.30587677221724   -1.82417816035474
C         1.72805663153546   -2.99429285539674   -0.60481725831205
C         0.35400784811873   -3.45187125861841   -0.59176992453956
C         2.98774381858545   -1.24031745012891   -1.95121855984549
C         2.41919943808315    0.00520802698273   -2.59433177323259
C         2.77509209063303    1.14831926659347   -1.82449336010254
C         3.39197596842713    0.70279162827149   -0.59853275992871
C         3.42221848150038   -0.72168992200690   -0.59812925758331
C         1.97078553250406    2.28869472205969   -1.82406596787507
C         0.74882703832219    2.29375977009148   -2.57798462178394
C        -0.24169293698716    3.01417713024982   -1.81889509839111
C         0.36629035969025    3.45091455158950   -0.59671894432616
C         1.73791959456515    3.00524304426769   -0.59843732577791
C        -1.56045950591089    2.57338362000745   -1.80501931725608
C        -1.94093260477153    1.40844976658162   -2.56625887106508
C        -2.94073546715039    0.68854874455827   -1.81817164591627
C        -3.17318885627736    1.39990944576046   -0.59379246576125
C        -2.30927620368788    2.57702693957463   -0.58161441192339
C        -2.94424087980359   -0.70635306181845   -1.83144139559414
C        -1.95374428153875   -1.42254199665069   -2.58599156625171
C        -1.57545156634909   -2.59158397835193   -1.82485933282518
C        -2.33887525708560   -2.59490882494631   -0.60326558449104
C        -3.18401378268039   -1.43031050315080   -0.60957651948642
C        -0.98508151254279   -0.72642080429550   -3.30553811122131
C        -0.98648480101299    0.71724729760210   -3.29661985707870
C         0.38381527249406    1.16275487601353   -3.29604403080127
C         1.23208690453279    0.00100776833141   -3.29730822640050
C         0.37769101776759   -1.16963589392620   -3.31505562127397
Cl       -1.96073123366770   -0.00447753164083    5.23670982545697
Cl       -3.14377999689671    3.62259367542627    2.87859707919387
Cl        4.43449796906244   -1.85546774424590   -2.90156236419145
