63
 energy: -142.111231418976 gnorm: 0.000151218461 xtb: 6.4.1 (a3dbbd7)
C        -1.28775221618726    0.01441497237626    3.54358083102141
C        -0.36052553919041   -1.15761572089853    3.31775632197964
C         0.94856935605308   -0.71556216504026    3.23884789088356
C         0.97203328029436    0.73519091068444    3.25287482246698
C        -0.37242848211343    1.19886001703403    3.30097663820272
C         2.32943791584861   -2.58358159389127    0.56441735489797
C         3.17783402177632   -1.41856006466695    0.56658660519030
C         2.93250139783813   -0.70007764470449    1.79391264128359
C         1.95772376839192   -1.42027344383671    2.54655147005172
C         1.57028030934770   -2.58334228241438    1.78794963411624
C         3.18294343275252    1.41169984190150    0.57372771722789
C         2.33627013232583    2.58125397839755    0.57171745715471
C         1.57568202185298    2.58021295697691    1.79607303019868
C         1.94643856393036    1.41930601016711    2.54329050182973
C         2.94613258092830    0.69578757205911    1.79242446720643
C        -0.36620634138170    3.43921748769253    0.57556612157969
C        -1.73013329974136    3.02788200260974    0.57921821932438
C        -2.09632795864244    2.47760257007063    1.94613077960322
C        -0.73229579897053    2.30886538612133    2.58385560422192
C         0.24624212013168    2.99414427340243    1.80208709636492
C        -3.35864482248723    0.70697965026019    0.57423881482106
C        -3.36560854620125   -0.72748076566695    0.56770028665566
C        -2.73524111109211   -1.15785683026456    1.78416580776208
C        -2.37570188217765    0.03508721710903    2.53257004354574
C        -2.73774248185035    1.13781961102301    1.81400996269597
C        -1.71671112994449   -2.99059165189923    0.57828175839905
C        -0.34545297492722   -3.43631977202380    0.58085142751873
C         0.26318696767549   -3.02644272026808    1.80198707694393
C        -0.78344064597870   -2.45306858967907    2.73291473246131
C        -1.95907284197661   -2.28691422149204    1.79726531473792
C        -0.23796474610864   -3.01157904952301   -1.83624518081066
C         0.75395112035980   -2.29105418128810   -2.59780871453681
C         1.98078242330468   -2.29308047706470   -1.84334582023504
C         1.74500784598487   -3.01458664544224   -0.61797036911643
C         0.37747998299395   -3.45342571929524   -0.61190574223275
C         2.79620270676493   -1.16845717767658   -1.83998697916486
C         2.41700942753287   -0.00168111066254   -2.59276650271101
C         2.79814646770420    1.16371978791431   -1.83377202273855
C         3.41257409768503    0.71832592688442   -0.61245539056142
C         3.40822984955649   -0.72393960596897   -0.61191758997544
C         1.98204757471683    2.28977042339904   -1.83430099562439
C         0.75524223147097    2.28922831469034   -2.58848108304404
C        -0.23431356710776    3.00973546995308   -1.82636400916917
C         0.37331769660189    3.45034771266162   -0.60606879996527
C         1.74614937158349    3.00783729483715   -0.60732585795816
C        -1.55445394619039    2.57406175816167   -1.81251937788738
C        -1.93694595433377    1.41043998116063   -2.57426243790406
C        -2.93117888099262    0.68938609457219   -1.82401276448979
C        -3.16425624868000    1.40260912144633   -0.59823909635587
C        -2.30357290252741    2.58159844604187   -0.58843553163544
C        -2.93655810201048   -0.70403536952565   -1.83799837595816
C        -1.94111203967903   -1.42058005238089   -2.59691879444424
C        -1.55888839938391   -2.58709301130231   -1.83979041431332
C        -2.31400544527869   -2.58239157939030   -0.61171019465467
C        -3.16409269926379   -1.42562063988003   -0.61677958254664
C        -0.98547024109114   -0.72138405698941   -3.32042797771767
C        -0.98412972060696    0.71952579997915   -3.31138616289603
C         0.38675546757371    1.16542805724796   -3.31599510786315
C         1.23284618690084   -0.00004833656307   -3.32032655295878
C         0.38725672936226   -1.16598408656418   -3.32314759387766
Cl       -1.95859829602516    0.00726515939145    5.23331903766565
Cl       -3.14557295067119    3.63187458181477    2.86492084606657
Cl       -1.20295802202715   -3.65469625974169    4.05873395207526
