63
 energy: -142.116938050779 gnorm: 0.000095999209 xtb: 6.4.1 (a3dbbd7)
C        -1.29067221100298    0.00142795878829    3.54045275896180
C        -0.36100192059568   -1.17525675036284    3.30879378155812
C         0.98856963320761   -0.72242709953040    3.27692190308540
C         0.98562895047053    0.71931051737148    3.26966791506381
C        -0.36703177498588    1.17732774787558    3.29917793945606
C         2.34776317914567   -2.58654325504068    0.58520030161678
C         3.19447854855161   -1.41956020310705    0.58261031910578
C         2.95690184708795   -0.69799187783184    1.80534400822974
C         1.96158699506582   -1.41781271279930    2.56064212026101
C         1.59043743551701   -2.58170995786669    1.81193475833327
C         3.19359328089642    1.41056981796613    0.57986631656528
C         2.34346139033981    2.57599922127638    0.57942027880538
C         1.58146600023618    2.56701902882233    1.80259547925131
C         1.95727474369271    1.40877150337657    2.55356332328486
C         2.95678187894532    0.68969188789361    1.80328173878629
C        -0.35758227260740    3.43342781352942    0.58356840372384
C        -1.72209244043041    3.02058116405115    0.58456124226878
C        -2.09127792775597    2.46303791773144    1.94586814290909
C        -0.72723221691785    2.28396650675892    2.58105188757266
C         0.25282819961474    2.97818180744841    1.80660230809092
C        -3.37524866895369    0.71159348181022    0.58494499175978
C        -3.37156681696673   -0.73658825853853    0.56649620795350
C        -2.75121830785764   -1.16404313854427    1.78840151021657
C        -2.38060030887631    0.01606297777768    2.52728351570500
C        -2.74656612892246    1.13141733643908    1.79960637799890
C        -1.72352009309952   -3.00815756771398    0.59044199590406
C        -0.35048378835566   -3.44689939522774    0.58826788384690
C         0.26430445650854   -3.00014109383932    1.81332645881642
C        -0.72013173190547   -2.28145375694781    2.57329651941137
C        -1.95998950766661   -2.29862389853684    1.80745807982922
C        -0.23174910457573   -3.01016085797471   -1.81958265596437
C         0.75665909996710   -2.29566391995627   -2.57337240436360
C         1.98562178194165   -2.29551055031677   -1.82026153783256
C         1.75291831962901   -3.01397998356137   -0.59406498761880
C         0.37901179621411   -3.45318178430796   -0.59201024607793
C         2.80062133911329   -1.17073182060103   -1.82312669025122
C         2.41745139649439   -0.00427632964529   -2.57920275612074
C         2.80305133902233    1.16251943215357   -1.82642144744802
C         3.41828290044150    0.71674909729328   -0.60245519582322
C         3.41718631364823   -0.72502861601322   -0.60093217737335
C         1.98789167876612    2.28883203333789   -1.82656870026765
C         0.76092464030193    2.29192553022297   -2.58092353334442
C        -0.22622370625777    3.01396240014963   -1.81968092858631
C         0.38206634013765    3.45081611912510   -0.59752693843180
C         1.75501876993715    3.00697975760095   -0.59957180226249
C        -1.54460413273236    2.57752612944697   -1.80413632217935
C        -1.93307772508728    1.40408985597896   -2.55358605269766
C        -2.93366186399903    0.70844891655939   -1.81510926381943
C        -3.15209566702051    1.39561080922588   -0.60828881037832
C        -2.29298954462117    2.57987462219351   -0.58403996120385
C        -3.13735611759115   -0.76121524768355   -1.95287116052734
C        -1.94023649427287   -1.43093965139913   -2.59347164730484
C        -1.55440917671285   -2.56585182820644   -1.82098807048974
C        -2.31694860663525   -2.57178246791687   -0.59883342596469
C        -3.17905114208883   -1.44002017800343   -0.60149052152576
C        -0.98628741290710   -0.73025661010047   -3.29551604373552
C        -0.98265582106783    0.72233302837133   -3.30720811927201
C         0.38318490095344    1.16171891671289   -3.30181527345555
C         1.23050298043764   -0.00451754023170   -3.30014904275752
C         0.38488829135587   -1.16879227817343   -3.29625618204382
Cl       -1.96169539790579   -0.00407159055701    5.22711021749575
Cl       -3.12883004790808    3.62301333542854    2.87277846132691
Cl       -4.66130842928489   -1.10917003925772   -2.90251858815160
