63
 energy: -142.123633908195 gnorm: 0.000143529385 xtb: 6.4.1 (a3dbbd7)
C        -1.29579142028979    0.00005924337393    3.54470378587103
C        -0.37284294255455   -1.17695261350848    3.29275699409129
C         0.97931341097053   -0.71988756891214    3.25910581710704
C         0.97931404321729    0.71995167792346    3.25909792661094
C        -0.37284082742700    1.17703173893543    3.29274976286515
C         2.33990446881519   -2.57863384493427    0.57207283913329
C         3.18985277611002   -1.41451728489029    0.57170732634576
C         2.95346248873821   -0.69356512247881    1.79581615309595
C         1.95331200960665   -1.41077271749357    2.54618431743217
C         1.57799185777066   -2.56925235640846    1.79522373071685
C         3.18992580997536    1.41460522799221    0.57177776552602
C         2.33999165833007    2.57873108456388    0.57216917124538
C         1.57804750974930    2.56931059882365    1.79528661417405
C         1.95334793004952    1.41081691095289    2.54621441976937
C         2.95355354677360    0.69361578427125    1.79588733757626
C        -0.36292726271694    3.43375881526104    0.57529443279091
C        -1.72806729179679    3.02999092882512    0.57675831655052
C        -2.09131555023528    2.46678793848174    1.93827017996725
C        -0.72987726229657    2.28611892193097    2.57511318055854
C         0.24911991811129    2.97868971029514    1.79900604644105
C        -3.35720668970901    0.72199121069692    0.57715158370841
C        -3.35721482175079   -0.72159645207026    0.57707592320032
C        -2.74922100773559   -1.14430161299133    1.79695061085704
C        -2.36518408992343    0.00008444234979    2.50948492616456
C        -2.74915224968153    1.14457949384078    1.79689992878583
C        -1.72812289324379   -3.02963381404770    0.57662170419858
C        -0.36302764680741   -3.43359820072479    0.57516447106583
C         0.24904082730043   -2.97858538425623    1.79889555038749
C        -0.72990842148552   -2.28590680316054    2.57494103584467
C        -2.09134412425113   -2.46649243961085    1.93814066901351
C        -0.23203201649092   -3.01177765920823   -1.82964855138448
C         0.75814989666054   -2.29110355333160   -2.59114659376786
C         1.98389348643847   -2.28918342344267   -1.83465401048757
C         1.74804605858060   -3.00682529380468   -0.60736497885815
C         0.37696605751590   -3.44914883707910   -0.60626319941679
C         2.80157403903083   -1.16560630017382   -1.83589544863893
C         2.42082464108272    0.00012550626582   -2.59165194431819
C         2.80162685577955    1.16582029779230   -1.83585652520664
C         3.41655132965785    0.72021663134176   -0.61106051123037
C         3.41651722708536   -0.72008050068506   -0.61109501035463
C         1.98400245158051    2.28943552811565   -1.83458506729597
C         0.75824593098119    2.29141510694537   -2.59106798132848
C        -0.23190364418336    3.01207773324919   -1.82950468276355
C         0.37710639169220    3.44935449045931   -0.60611431391866
C         1.74816437064702    3.00700766118322   -0.60725053691326
C        -1.55168992932025    2.58100803053995   -1.81865381844832
C        -1.93584957432837    1.41360683501394   -2.57743728148247
C        -2.93291570919042    0.69924902676376   -1.82658107886165
C        -3.16598587978027    1.41789471454072   -0.60604040097551
C        -2.30483477259634    2.58987244508498   -0.59469597453298
C        -2.93301041215272   -0.69885456166863   -1.82666661539553
C        -1.93596483109080   -1.41320431446929   -2.57752645685600
C        -1.55182175752934   -2.58067358624203   -1.81879813457106
C        -2.30489900304818   -2.58956128316812   -0.59481815124746
C        -3.16597617577204   -1.41748022553649   -0.60601919121271
C        -0.98245983497369   -0.72080185475328   -3.31158017842091
C        -0.98241133042637    0.72119453075824   -3.31152335736266
C         0.38876278499949    1.16570220207027   -3.31501244761758
C         1.23487924747377    0.00015643002047   -3.31643210650270
C         0.38870259615805   -1.16535289532184   -3.31506402131280
Cl       -1.96899008812965    0.00001083237632    5.22016690319322
Cl       -3.13047988026432    3.62994862697748    2.87384712801658
Cl       -3.13041728507152   -3.63004821907403    2.87372955965793
