63
 energy: -142.113632018424 gnorm: 0.000110253428 xtb: 6.4.1 (a3dbbd7)
C        -1.29281440761957    0.00638779223772    3.55614822546290
C        -0.36441325380029   -1.16986858619728    3.31516662217789
C         0.98588476856815   -0.71859501050173    3.28323837675153
C         0.98442520636977    0.72162499661765    3.27674504725962
C        -0.36793218628243    1.18132708192384    3.30831526445965
C         2.33722813833763   -2.58112522967887    0.58434805371601
C         3.18993378430633   -1.41717257194460    0.58313781038889
C         2.95178281744229   -0.69574331256291    1.80469642966557
C         1.95533731221104   -1.41486700492396    2.56117970826629
C         1.58236436992137   -2.57700696877815    1.81248064215293
C         3.19173463001122    1.41292344120549    0.57999573742251
C         2.34153433704263    2.57706311970603    0.57997057928960
C         1.57933654437605    2.56741694860873    1.80434179176911
C         1.95545742470248    1.41029569015646    2.55523133711244
C         2.95329855250488    0.69162804059663    1.80547320381836
C        -0.36298137259256    3.42824575974814    0.58484292118372
C        -1.72617323566707    3.01451787078697    0.58717679891882
C        -2.09267121426496    2.46420355346414    1.95365565918211
C        -0.72799705407503    2.28672755690825    2.58792431602393
C         0.25040453167087    2.97708028494611    1.80744994641714
C        -3.37157530571005    0.70267254311897    0.58743394042646
C        -3.38371833258003   -0.72555769816112    0.57637184778704
C        -2.76259310148478   -1.15833098707406    1.79709301952726
C        -2.38642969940643    0.02597072543513    2.54395578573728
C        -2.74782391031161    1.13238698604743    1.82515353882353
C        -1.72612182935371   -3.00432584271074    0.58771042909172
C        -0.35985069906480   -3.44319068348274    0.59313019913642
C         0.25571889106247   -2.99471714411005    1.81681323023275
C        -0.72580840790436   -2.27172581559155    2.57532324302527
C        -1.96487121415640   -2.28271432851739    1.80535341350350
C        -0.24977262900479   -3.00389590490382   -1.81597072455803
C         0.75576359301934   -2.29328446440693   -2.58202153839955
C         1.97070332514111   -2.28572990764492   -1.82283728407225
C         1.73845877983535   -3.00224572741884   -0.59377449871559
C         0.36616040160226   -3.44175479548099   -0.58979370793358
C         2.80217015373705   -1.16565412138259   -1.82361074257601
C         2.42463534912311    0.00204816560122   -2.58055927324489
C         2.80817467972206    1.16801066455475   -1.82657783164371
C         3.42011779198805    0.71976691576655   -0.60094227515070
C         3.41442684567821   -0.72312052563381   -0.60154059961231
C         1.99206137854671    2.29298360718122   -1.82589507104550
C         0.76330287551522    2.29159133078339   -2.58080981719791
C        -0.22870514398113    3.00815711776206   -1.81810607818549
C         0.37638924719660    3.44434122800596   -0.59878625861122
C         1.75225221179858    3.00742388898201   -0.59873666937831
C        -1.55137046875392    2.56201644427943   -1.80828330326264
C        -1.93635386576731    1.41265829124502   -2.57237201797895
C        -2.92672240033923    0.67543134872242   -1.81092704888715
C        -3.15809119301591    1.39167307963346   -0.58896900701123
C        -2.29877649360458    2.56740835527917   -0.58009655412789
C        -2.95379233342540   -0.70623636283891   -1.83108590092793
C        -2.08329512719896   -1.52516157831980   -2.75854392009972
C        -1.56831662795044   -2.60336185206394   -1.82821390659548
C        -2.30588949121496   -2.57723807449538   -0.61060058356177
C        -3.15733317156281   -1.41499334341842   -0.61543010868226
C        -0.97147301340567   -0.71490939143183   -3.32015165942218
C        -0.97493035492890    0.70362773967602   -3.29156140021995
C         0.39814695050935    1.16613478750785   -3.30170064945460
C         1.24057119205005    0.00531369037828   -3.30307855292343
C         0.37653702159203   -1.15585855106528   -3.29620177994496
Cl       -1.94520943729727   -0.00528629158745    5.24646713974707
Cl       -3.12875214507675    3.62957722982415    2.87681041031389
Cl       -3.08394025496350   -2.26113508359577   -4.11038806903226
