63
 energy: -142.115344529148 gnorm: 0.000185497061 xtb: 6.4.1 (a3dbbd7)
C        -1.30673644421573    0.00053961209288    3.57090615514705
C        -0.38654361653590   -1.16902164389121    3.29631435381092
C         0.97535815539624   -0.71923745808460    3.25374240896753
C         0.96804318224950    0.71792484639592    3.25172063546492
C        -0.38509078655989    1.16537494467929    3.27352415604197
C         2.34591728374023   -2.58739712075603    0.57497542802778
C         3.15609944387843   -1.41432473666244    0.57397264332803
C         2.91335655183737   -0.69153245127898    1.80053165477917
C         1.95507242784337   -1.41179822668588    2.56662430581330
C         1.69025314707520   -2.75157387172637    1.92730849936056
C         3.17655351633417    1.42317680496755    0.57811100624220
C         2.33241115109619    2.59267051518085    0.57738954060284
C         1.57211169788175    2.58763002740749    1.79994790641088
C         1.94172040750021    1.42101653349457    2.54652778597157
C         2.93439322372055    0.70192214929592    1.80108999236368
C        -0.36696046942285    3.44445144783514    0.57445100497918
C        -1.73699013435313    2.99846391608712    0.57074109959177
C        -1.98199351769152    2.28120065899370    1.79074058838268
C        -0.74073573891104    2.27847138975705    2.55919399240182
C         0.24368210086711    2.99895762560674    1.79945779219888
C        -3.37286169570294    0.72714254383242    0.57119310453055
C        -3.37477153541711   -0.71155855336309    0.57072372597850
C        -2.78576852368285   -1.15647847325987    1.79191487168325
C        -2.63755290874190    0.00631170244133    2.75036884475363
C        -2.78709669522018    1.17334943935627    1.79371631645902
C        -1.73773219163008   -2.97828180413507    0.57029567562921
C        -0.35908515433178   -3.41416308549657    0.58507893182961
C         0.23276896993629   -3.00068674203662    1.80409674589207
C        -0.72992393768371   -2.26945381037866    2.54524017530138
C        -1.97880382163725   -2.26181221573375    1.78511066055267
C        -0.24023254160507   -3.00147757476183   -1.82329839971143
C         0.75125221254159   -2.27868349714707   -2.58024943414906
C         1.97420314524065   -2.27573261033596   -1.81958988483127
C         1.74326447029772   -2.99510938649011   -0.59573471592725
C         0.36668782591432   -3.45425739097482   -0.60691083593488
C         2.79531593861719   -1.15502184404491   -1.82788778536586
C         2.41736520520124    0.00984407183371   -2.58829635462217
C         2.79427546260939    1.17583876713090   -1.82922609412641
C         3.40267774091174    0.72896290340027   -0.60273086172638
C         3.40025056411458   -0.71368137026363   -0.60458897405104
C         1.97555753019468    2.29868683040658   -1.82899717114551
C         0.75000655238026    2.29657539153347   -2.58934942998789
C        -0.24347402550703    3.01462950545258   -1.83548720894796
C         0.36578352332330    3.45621122379297   -0.60477581640110
C         1.73921740452842    3.01829953209476   -0.60471967700428
C        -1.56443884988735    2.58614162472088   -1.84224650578116
C        -1.94082280507098    1.42108605134611   -2.60186556482589
C        -2.93350882236586    0.69853734525725   -1.84482448737369
C        -3.16406481913186    1.42058267808280   -0.61760508597409
C        -2.32514950315559    2.58207878639943   -0.61833762982565
C        -2.93480493427764   -0.68731960571736   -1.84563639981716
C        -1.94097880251242   -1.41171639125635   -2.59946099765740
C        -1.56784764594241   -2.57506053721066   -1.84139936246507
C        -2.32817594053710   -2.56876513001771   -0.61748893381690
C        -3.16714993627383   -1.40722302387657   -0.61718771718348
C        -0.98183041164563   -0.71562367776559   -3.32776811673170
C        -0.98227970250018    0.72545975043366   -3.32683019373936
C         0.38849311690631    1.17197922272235   -3.32090446462461
C         1.23625358179727    0.00763340978990   -3.31723213812106
C         0.38860912943166   -1.15937938871437   -3.31724618250259
Cl       -1.60644537265420    0.01146898504698    5.36137767974725
Cl       -4.10051670963091    0.00103051613150    3.81767732734754
Cl        2.50201797576078   -4.10278031883873    2.87823399025618
