63
 energy: -142.110416483727 gnorm: 0.000072263797 xtb: 6.4.1 (a3dbbd7)
C        -1.29717229350162    0.00498167781641    3.54015013773879
C        -0.37227162152911   -1.17387123256347    3.31577536412019
C         0.98576475283641   -0.72092142808126    3.26007970545306
C         0.97742761643474    0.71843311497200    3.25328035976238
C        -0.37358770144832    1.17897607219707    3.28992513102610
C         2.34712648097584   -2.59108077038517    0.57220833431115
C         3.15810199780152   -1.41792631262114    0.56894396720873
C         2.91764512768765   -0.69622310108939    1.79497162940142
C         1.96306199069837   -1.41487705251287    2.56737291944093
C         1.69497164000806   -2.75395677569637    1.92634137657848
C         3.18019729355084    1.41758320742593    0.57113578262934
C         2.33521772991240    2.58483802385200    0.57089047629521
C         1.57387168453414    2.57698050223850    1.79437383895312
C         1.94872587982687    1.41537525816917    2.54202005144800
C         2.94044033479402    0.69742464597012    1.79492350539444
C        -0.36947285258861    3.43350946233657    0.57531352373383
C        -1.73316136189467    3.02205947737595    0.57921280915910
C        -2.09856216429037    2.46821544898683    1.94423131900999
C        -0.73348390600009    2.28926636488798    2.57733902417433
C         0.24439712587146    2.98277783892690    1.79839533805020
C        -3.38056022358470    0.70962916083038    0.57315679904882
C        -3.39878204894694   -0.72546055091472    0.56528700919366
C        -2.77321111259135   -1.15512986552196    1.78448951849335
C        -2.39322992297448    0.03005202867702    2.53048368466522
C        -2.75265593040212    1.13579055452623    1.81199209177170
C        -1.73945568841879   -2.99657797091854    0.57357891921839
C        -0.35757388631628   -3.42460609887447    0.58665692900694
C         0.23756044649678   -3.00050520659189    1.80307722686243
C        -0.72153104702409   -2.26536151573673    2.54264217244991
C        -1.97246749817533   -2.27484390047367    1.78834262319164
C        -0.24404027422271   -3.00843477423954   -1.82074285433165
C         0.74784834959008   -2.28344737416725   -2.57967748876479
C         1.96985478847885   -2.27955110998760   -1.82205796945088
C         1.74188564298733   -2.99917389488230   -0.59643122795948
C         0.36662911372454   -3.46068982068843   -0.60519498984444
C         2.79333705514825   -1.15953320441418   -1.83292571708051
C         2.41563392172808    0.00470956389208   -2.59269172268238
C         2.79636308159426    1.17090505802120   -1.83644522244247
C         3.40641319556774    0.72355651162373   -0.61079575758890
C         3.40118774345558   -0.71832166045816   -0.61106200184481
C         1.97945540081839    2.29570245500325   -1.83579241718453
C         0.75084849625142    2.29346871839829   -2.59081385064291
C        -0.23861280772628    3.01098971305315   -1.82821391671426
C         0.36995420027453    3.45032603134430   -0.60709634538721
C         1.74313314988906    3.01293653871968   -0.60951685352243
C        -1.55815740850537    2.57208701356411   -1.81347554119033
C        -1.94099437152364    1.41112129781208   -2.57557873562184
C        -2.93805698220537    0.68931801274469   -1.82455632418660
C        -3.17225144622590    1.40346338491887   -0.59892483737251
C        -2.30795536362239    2.57794115921546   -0.58836720947262
C        -2.94468565860266   -0.70183985793116   -1.83780134215533
C        -1.94678461200774   -1.42012725243847   -2.59291046293873
C        -1.57078436210359   -2.58535259355388   -1.83649777331949
C        -2.33499245734388   -2.58557501304451   -0.61269898034791
C        -3.18501991506080   -1.42576064402939   -0.61754062932698
C        -0.98942673031723   -0.72109020431961   -3.31796910152010
C        -0.98884405619672    0.71985286677551   -3.31062503652005
C         0.38334336921461    1.16719043797577   -3.31478446211079
C         1.22945481650545    0.00289066010019   -3.31601041349187
C         0.38253245275657   -1.16367327706944   -3.31370921155252
Cl       -1.95590062108673    0.00640171276007    5.23295489686932
Cl       -3.13681569146477    3.62769660196358    2.87200377187536
Cl        2.50394881227956   -4.11019746676236    2.87381803668943
