63
 energy: -142.112002458968 gnorm: 0.000130687248 xtb: 6.4.1 (a3dbbd7)
C        -1.29595008894885    0.00554095332864    3.53733138413647
C        -0.36879481707161   -1.16847323247428    3.29061455411082
C         0.98249820275029   -0.72436491883848    3.26147517229160
C         0.97698719689543    0.72541862614352    3.27162113212672
C        -0.36923695042649    1.18019927845461    3.29659464063963
C         2.32729345109773   -2.56292648461312    0.57023750979406
C         3.19447602779794   -1.43087378538304    0.56995101719250
C         3.14898501607276   -0.75825828028150    1.92482096040797
C         1.95205606006310   -1.42481251596292    2.56432523145441
C         1.56801961063595   -2.55290549873782    1.79784301157510
C         3.16457506655643    1.40015057918207    0.58246002417404
C         2.32183338329668    2.57722361840394    0.57187954368511
C         1.56575811771946    2.57183155693767    1.79055168358943
C         1.94748041053264    1.40042819322985    2.53027691533734
C         2.94802414716870    0.70554898994440    1.79803540442401
C        -0.37476193704295    3.43468120713823    0.57627299640408
C        -1.73774212777259    3.02156847704676    0.58033441765862
C        -2.10077091554757    2.46491631090406    1.94496324380174
C        -0.73712269070063    2.29391710312033    2.58099644615152
C         0.23847765410215    2.98344811325880    1.79983079430675
C        -3.38048975470149    0.70532067602448    0.57223280706173
C        -3.39662080784080   -0.73077675802693    0.56457285908460
C        -2.77464948029093   -1.16162422086545    1.78369396485716
C        -2.39168071688861    0.02644871518780    2.52735860432605
C        -2.75269506560050    1.13168261508036    1.81026731666941
C        -1.74491010742800   -3.01055199490206    0.57417012698374
C        -0.37088676194316   -3.44319594227797    0.57626733331070
C         0.24120157896577   -2.98669734571737    1.79839413437214
C        -0.73745626320751   -2.27188293660776    2.55522350960650
C        -1.98178686907442   -2.28846614057382    1.79398248320011
C        -0.25401117461796   -3.01650520620642   -1.83335208922373
C         0.74062064507223   -2.29732363171614   -2.59112650797582
C         1.96404405096833   -2.29691525089298   -1.83104868403552
C         1.73122143104508   -3.00712121353018   -0.60704723318947
C         0.35941534744339   -3.45149782339884   -0.60312930092504
C         2.78067612661657   -1.17164244604980   -1.82440965998800
C         2.40561969947385   -0.00685389536991   -2.58083053321245
C         2.79285128007355    1.15915034200318   -1.82499822968568
C         3.41332185264771    0.71896103069794   -0.61221478225780
C         3.39759930357340   -0.73224467257325   -0.60051073489750
C         1.97505836377257    2.28988889020870   -1.83462576913973
C         0.74984315027638    2.28605175991967   -2.58667338969949
C        -0.24211470596431    3.00726365006515   -1.82696211207535
C         0.36461871834711    3.44989319182335   -0.60624634310092
C         1.73647560054165    3.00721860574676   -0.60782488000594
C        -1.56089085426235    2.56954781427143   -1.81238396864655
C        -1.94409176403399    1.40667960012757   -2.57514748612243
C        -2.93913947812436    0.68579273197659   -1.82537641015135
C        -3.17346128817752    1.39975852404605   -0.59900972003555
C        -2.31082859093375    2.57567090301138   -0.58776079306668
C        -2.94790094611947   -0.70657502228252   -1.83920308433055
C        -1.95275601548975   -1.42362929616933   -2.59621370440809
C        -1.57508230141858   -2.59204050487342   -1.83822006378217
C        -2.33842078906349   -2.59275216613207   -0.61480179212199
C        -3.18504746116787   -1.43093319068564   -0.61911874488402
C        -0.99357979332704   -0.72635490127896   -3.31717111856622
C        -0.99061457849569    0.71635706416466   -3.31030274971199
C         0.37987027442429    1.16082957018081   -3.31452734292667
C         1.22463811978899   -0.00558620470214   -3.31247595293137
C         0.37728817348247   -1.17128532324311   -3.31669969432408
Cl       -1.95269911826700   -0.01491898098759    5.22620003585192
Cl       -3.14714183076921    3.61952378394534    2.87279637432065
Cl        4.68033314130044   -1.12332981199565    2.87444437539420
