63
 energy: -142.117728617215 gnorm: 0.000068885636 xtb: 6.4.1 (a3dbbd7)
C        -1.31518115803225    0.00282425971257    3.58078305846741
C        -0.39080580298700   -1.16206822213608    3.28496384180469
C         0.96168811197282   -0.71205131061059    3.26440600119305
C         0.96170898664694    0.72106552260132    3.27148442598365
C        -0.39252910056205    1.17078852529625    3.29243922432793
C         2.33296963290709   -2.59529274907317    0.58547054769786
C         3.39388258346264   -1.51667564787843    0.63298599211843
C         2.94756557339162   -0.69133214918485    1.82058500451912
C         1.93756732500465   -1.39733035231380    2.53630794618289
C         1.56633250992864   -2.56306715903107    1.78545118710475
C         3.18195089467771    1.42246368806599    0.58137646983287
C         2.33124222532119    2.57539689031235    0.57872183351721
C         1.56712752745949    2.57098623414264    1.80088974444124
C         1.93474846828957    1.40836893186987    2.55127072198689
C         2.93281777957163    0.68490036033903    1.80554429720954
C        -0.36895987975760    3.43994961780425    0.57837938153900
C        -1.73670134735598    2.99491462321578    0.57412691105301
C        -1.98315337263090    2.27751142956436    1.79454703013271
C        -0.74425372676201    2.27655039863428    2.56559751613657
C         0.24217177129278    2.99169375158015    1.80351820596835
C        -3.37200064221887    0.72193748712656    0.57431104744738
C        -3.37259122056361   -0.71614786211327    0.57504231021758
C        -2.79061485421171   -1.16314748140807    1.79835099517939
C        -2.64277442440574    0.00364380848726    2.75470352407230
C        -2.78791900371963    1.16893245672696    1.79611680631462
C        -1.74372621897260   -2.99302550581208    0.57837226864432
C        -0.37355562782746   -3.43418906155316    0.58352447759958
C         0.23712385795887   -2.98797879911599    1.80143088769003
C        -0.74634426548372   -2.27170581143884    2.56494966563901
C        -1.98786419090118   -2.27341174142854    1.79775204851031
C        -0.24327688294734   -2.99809927065454   -1.82466934908852
C         0.75279441781610   -2.28188117040537   -2.58042104834494
C         1.97419092038684   -2.28808538696522   -1.83066029789393
C         1.73539175113418   -2.99769515954321   -0.58864797982589
C         0.36391046910872   -3.43643311980645   -0.59361103963887
C         2.78263079843936   -1.15134802922412   -1.80982407915167
C         2.40368239898305    0.01024980212337   -2.58569200001117
C         2.78058653258656    1.17076369249946   -1.83089842695801
C         3.38790209508147    0.70831678288445   -0.60047819540841
C         3.40764555806863   -0.70958601229189   -0.61463409199740
C         1.96903260693616    2.29468767552696   -1.83002515539074
C         0.74434120036508    2.29597950472932   -2.59269624899681
C        -0.24727339121207    3.01223807139716   -1.83419157950231
C         0.36559740164712    3.44988259284416   -0.60163562473718
C         1.73498484541120    3.01347819894211   -0.60399415034366
C        -1.56731785328417    2.58498825249541   -1.84011997106646
C        -1.94438567288496    1.41858034916917   -2.60121307999522
C        -2.93515962403023    0.69621793756265   -1.84268940893454
C        -3.16259513474242    1.41678638340245   -0.61530045109370
C        -2.32673171685922    2.57879983441909   -0.61562430651297
C        -2.93361682260353   -0.69060662516235   -1.84263864141114
C        -1.94460048214937   -1.41274149919012   -2.59885889332081
C        -1.56537698613272   -2.57677696477668   -1.83516419567779
C        -2.32802838362075   -2.57399229707401   -0.61276587634572
C        -3.16386172436398   -1.41188959989907   -0.61321051513366
C        -0.98420360448602   -0.71821435240279   -3.32643339053118
C        -0.98788222637921    0.72548623667850   -3.32922352446733
C         0.38195813956111    1.17320356194825   -3.32634913263298
C         1.22830630792699    0.00701154887738   -3.32147382852063
C         0.38271984595626   -1.16040762889604   -3.32326207968013
Cl       -1.61935012679984   -0.00908988888660    5.36601380652367
Cl       -4.10894462920221    0.00680038435045    3.81854347566767
Cl        5.04769466118209   -2.24991357256157    0.94255976614755
