63
 energy: -142.099004096043 gnorm: 0.000113301692 xtb: 6.4.1 (a3dbbd7)
C        -1.30472796808744    0.00742687883193    3.53897471774786
C        -0.37771012914393   -1.16800365734994    3.30438435833834
C         0.97346125712602   -0.71537077047796    3.27895985471108
C         0.98009089974868    0.72044326103948    3.29028766232056
C        -0.37104404576406    1.17955019180553    3.31483720472389
C         2.33402372710589   -2.59815971073297    0.58688940331905
C         3.39544915586257   -1.52090900735149    0.63371612078161
C         2.95184220289029   -0.69600860233482    1.82326522869845
C         1.94483746720219   -1.40098294942139    2.54251832243394
C         1.56872476811460   -2.56476453987809    1.78859200966266
C         3.18953065353925    1.41982261834632    0.58624640531308
C         2.34741988103744    2.57350714454712    0.58919080374813
C         1.58825432001710    2.57149742413093    1.81408213629825
C         1.95329882658981    1.40551956505258    2.56454780137889
C         2.94384847259331    0.68030931872020    1.81209483950281
C        -0.35991480602986    3.43009719518096    0.59274934548804
C        -1.73004187385996    2.99503845755631    0.61254782237420
C        -1.95732298926917    2.29903281162012    1.79076824528097
C        -0.72327755484327    2.27696743419370    2.56977791984672
C         0.26590652171257    2.99300518545159    1.81494817896363
C        -3.39182528361969    0.70801528435930    0.56495384845343
C        -3.39688718853458   -0.72523097114912    0.56674435154128
C        -2.78063607999445   -1.15505131676423    1.79469156291404
C        -2.42276494885961    0.02066808181289    2.55196331330314
C        -2.77719624831331    1.13986921689336    1.82029447635007
C        -1.74470795767598   -3.00625701824762    0.58436327224683
C        -0.37275015623850   -3.44120197587571    0.58822226435262
C         0.24094295758597   -2.98912586763332    1.80420662030445
C        -0.74149892247605   -2.26878106960317    2.56566365265445
C        -1.98433256348074   -2.28454418886550    1.80485215314053
C        -0.24552660259124   -3.00916991546068   -1.81894539030794
C         0.75183346987782   -2.29063526333946   -2.57739843169647
C         1.97273270886254   -2.29464254457238   -1.82899801924282
C         1.73560783222915   -3.00253220053473   -0.58564253380004
C         0.36420864052921   -3.44330732827667   -0.58967818702834
C         2.78044715317146   -1.15533741310596   -1.81006862876247
C         2.40036593215539    0.00229675641079   -2.58365692164759
C         2.77535016891329    1.16483982704536   -1.82596382789783
C         3.38891216775124    0.70266716890471   -0.59732784713978
C         3.40588359747017   -0.71207976667794   -0.61287426539545
C         1.95899901060494    2.28225338420578   -1.81787753584862
C         0.73120272590344    2.28012387221116   -2.57545900967990
C        -0.25944280102195    2.99183602914801   -1.81812631051212
C         0.37320368556786    3.44868579793883   -0.58367175874460
C         1.73223452787426    3.00747862777712   -0.59193019581349
C        -1.56962866454729    2.57965734753863   -1.82995747209469
C        -1.93556127005388    1.41112938425426   -2.56393875684537
C        -2.92991501295932    0.68777988983157   -1.81033290796667
C        -3.18552616450165    1.40130005177732   -0.60137357966400
C        -2.49553753450887    2.74898172180710   -0.64340314806571
C        -2.93690115968357   -0.70529535182976   -1.82856484544821
C        -1.94705850320847   -1.42482389247326   -2.58944720678203
C        -1.56836952258846   -2.59029763527534   -1.82777617116785
C        -2.33560967528087   -2.59331452382991   -0.60712805680744
C        -3.17883065330001   -1.42945785302869   -0.61259898595517
C        -0.98946095882509   -0.72808765252205   -3.31361634154265
C        -0.98935011971699    0.71434929836678   -3.31043337038459
C         0.37479547632541    1.16045020565181   -3.31731514152798
C         1.22459508848467   -0.00286623953967   -3.31985180825139
C         0.38034964984464   -1.17052378208035   -3.31843880877089
Cl       -1.93653829649900   -0.00020404864970    5.24840372691616
Cl       -3.70182603511740    4.08113954952357   -0.94961484796863
Cl        5.04990891212921   -2.25212047992465    0.93754765420515
