63
 energy: -142.113389702907 gnorm: 0.000116750664 xtb: 6.4.1 (a3dbbd7)
C        -1.30569377808298    0.00696793347135    3.54823388024970
C        -0.37647695686954   -1.16853604777243    3.30489406860848
C         0.97170976861915   -0.71441327021256    3.27154144463534
C         0.97042634065234    0.72105270784783    3.27277206529907
C        -0.38144885454050    1.18391215541074    3.30731687954289
C         2.33464316125948   -2.59924670042408    0.58197543130697
C         3.39639551940519   -1.52181677072399    0.62717441194087
C         2.95150602687412   -0.69666076244753    1.81518429112382
C         1.94465466526332   -1.40052054437792    2.53590136747599
C         1.57069366480960   -2.56595527656586    1.78470970363133
C         3.18580854396549    1.41684142968223    0.57491794445675
C         2.33470879854983    2.56734876482565    0.57285694392466
C         1.56877958934934    2.55975685207053    1.79541100420990
C         1.94114921507444    1.40211998467399    2.54658818767536
C         2.93826087619365    0.68006023468587    1.79960087285587
C        -0.37175419533307    3.42845995965942    0.57891228958625
C        -1.73320888025307    3.01915958919593    0.58183032593136
C        -2.10093668949615    2.46533642508531    1.94623325519126
C        -0.73762008269479    2.28754475167918    2.58337642985541
C         0.24240494264936    2.97446439565180    1.80215643630050
C        -3.38075524717509    0.70625465378990    0.57649756417059
C        -3.39643421740473   -0.72829657261344    0.56953165190145
C        -2.77611567126560   -1.15957215842794    1.79086042891146
C        -2.39785395221414    0.02710028637625    2.53487961683389
C        -2.75502508744461    1.13299552154684    1.81302838349070
C        -1.74527792028011   -3.01030084901356    0.58262276690082
C        -0.37213739696767   -3.44380505358261    0.58581033832887
C         0.24191139714646   -2.98967517232078    1.80142318758093
C        -0.73828420748852   -2.27033766805837    2.56450640135906
C        -1.98063759108411   -2.28568624103144    1.80152773904593
C        -0.24743880825935   -3.00439326010818   -1.82101066178535
C         0.74937144149325   -2.28632217664245   -2.57920650214764
C         1.96979238696407   -2.29192588051371   -1.83336126020895
C         1.73421142595325   -3.00155419112750   -0.58972278819843
C         0.36323308707096   -3.44246423133590   -0.59193310912930
C         2.78062082763195   -1.15631590750356   -1.81472102260419
C         2.40200910139146    0.00490922670829   -2.59022302781526
C         2.78188753319381    1.16497178110870   -1.83753552372884
C         3.39089449386898    0.70164855387012   -0.60750832053277
C         3.40897888205734   -0.71506162572945   -0.62070083257639
C         1.97259059519130    2.29100099601847   -1.83618662824188
C         0.74506493055472    2.29271810404923   -2.59428252058388
C        -0.24237000826623    3.00865552307236   -1.82757831376403
C         0.37023208200269    3.44328622366864   -0.60371401829256
C         1.73869038995376    3.00784337317194   -0.60830521108731
C        -1.56123158507131    2.57212495109014   -1.81267333458246
C        -1.94443670523767    1.40978351505793   -2.57573106485348
C        -2.93966860118471    0.68849312441513   -1.82233035007279
C        -3.17130771308374    1.40181667574127   -0.59775696414679
C        -2.31105573747494    2.57613612575861   -0.58719915276964
C        -2.94329615288740   -0.70391915434439   -1.83474859732791
C        -1.95102133610907   -1.42021450492363   -2.59139801294792
C        -1.56898194089907   -2.58617364497068   -1.82916272086388
C        -2.33513207000421   -2.58989151745449   -0.60744096446846
C        -3.18141981786905   -1.42901818284504   -0.61288390351893
C        -0.99167740698781   -0.72301577125611   -3.31608009027976
C        -0.99440282363242    0.72054466736822   -3.31352753731537
C         0.37688935719086    1.16855215182287   -3.32088120291003
C         1.22139528358521    0.00218120976441   -3.32062798986142
C         0.37643228222517   -1.16423505923298   -3.31966926119708
Cl       -1.96376328190166   -0.01424003552639    5.23654197824384
Cl       -3.14249199048092    3.62457727399963    2.87061745609608
Cl        5.04961972522734   -2.25720937973220    0.93861848616703
