63
 energy: -142.113249156309 gnorm: 0.000108036494 xtb: 6.4.1 (a3dbbd7)
C        -1.30163390305568    0.01273482366876    3.54972582538900
C        -0.37146238472065   -1.16131384560594    3.30697556644523
C         0.97281873299923   -0.71277123690310    3.27124592147094
C         0.97506486788713    0.72768794975981    3.26896232737709
C        -0.37682350008786    1.18909685816102    3.30527766578411
C         2.49744276922583   -2.75464784397458    0.62879876312007
C         3.19793427466627   -1.41350629892950    0.58074179466407
C         2.93379345086484   -0.69437882794796    1.78135685502412
C         1.93517581857307   -1.41417015720436    2.53543166133975
C         1.57891021307655   -2.58193864841069    1.81808073842109
C         3.18106126937797    1.41877347784901    0.58030887468558
C         2.33420611789622    2.58380273110189    0.57883331845975
C         1.57166482005961    2.57618999467143    1.80279334014007
C         1.94633548697941    1.41651049672405    2.55151602053434
C         2.94238641429427    0.69757802956929    1.79668776129036
C        -0.37125725593679    3.43159813672441    0.58067023567592
C        -1.73382620013963    3.02286787538853    0.58370918198020
C        -2.10059933891383    2.46952519371691    1.94817839161951
C        -0.73657989537162    2.29508532056838    2.58526901086870
C         0.24231536806335    2.98517485640941    1.80550386036223
C        -3.37634355480999    0.70645764903664    0.57515903244410
C        -3.39297422630350   -0.72706166121364    0.56855117631781
C        -2.76714765322669   -1.15776212858027    1.78767559837635
C        -2.39112323218316    0.03064947581579    2.53313108122609
C        -2.75084938344435    1.13522666859842    1.81411733575043
C        -1.72963110632437   -3.00552130055161    0.57707418940967
C        -0.36852371963618   -3.44804557881869    0.58131971830787
C         0.25655149508094   -2.98052214771861    1.80399987893968
C        -0.72690144028521   -2.26121622120223    2.55947101323861
C        -1.96810956620998   -2.27901536364391    1.79589370178151
C        -0.25282681236818   -3.00112066352721   -1.83349892181881
C         0.73613383563728   -2.28383665577997   -2.58816066228787
C         1.95722249991431   -2.28521392848071   -1.81304829466583
C         1.72921947316249   -3.01311457552023   -0.61580519050648
C         0.37461293560718   -3.42992176264811   -0.59975805400453
C         2.79207217095146   -1.16723365386050   -1.83575940384565
C         2.40896803362275   -0.00762409458360   -2.58227730430853
C         2.78782695345329    1.16052814779931   -1.82507357093376
C         3.40063158126940    0.71630198482751   -0.59998764621842
C         3.39966552283942   -0.72216003680271   -0.59426508941059
C         1.97639982954388    2.28669095866097   -1.82788789820614
C         0.74926794624380    2.28993019251115   -2.58693259482401
C        -0.23866126778548    3.00642314745200   -1.82402822678541
C         0.36977046977174    3.44631808196067   -0.60194271084911
C         1.74072719939537    3.00689464279374   -0.60210776145931
C        -1.55965411803389    2.57160692042048   -1.80994440396660
C        -1.94304290131679    1.41038640640949   -2.57462086901953
C        -2.93944526023857    0.68884587584088   -1.82344436102606
C        -3.17193345313578    1.40313062873645   -0.59702522766521
C        -2.30801164951744    2.57617505239806   -0.58609429286032
C        -2.94699999142396   -0.70216973915442   -1.83760839619071
C        -1.95410745773568   -1.41818607777071   -2.59875151696791
C        -1.57335972387484   -2.58417239091339   -1.83818272694824
C        -2.33494944505797   -2.58717368734982   -0.61293070777800
C        -3.17926645834915   -1.42877804335716   -0.61534783317037
C        -0.99705357861670   -0.72062314876663   -3.32250233413628
C        -0.99297621578980    0.72135922339554   -3.31283147344168
C         0.38151166355875    1.16394885548611   -3.31389431985008
C         1.22370100734396    0.00063323404190   -3.31879424050369
C         0.37514388200550   -1.16377955585868   -3.32087170289556
Cl       -1.96444730294658    0.00113564889326    5.23486696773104
Cl       -3.14450302553915    3.62713058002110    2.87292205209309
Cl        3.70506043234908   -4.10395606755486    0.92847264756069
