62
 energy: -137.536868242989 gnorm: 0.000074731002 xtb: 6.4.1 (a3dbbd7)
C        -1.29665106929277    0.00070664942338    3.54041575565135
C        -0.37044674572044   -1.17467210339336    3.31854297211065
C         0.98104519659792   -0.71992243115296    3.28709197612961
C         0.98107806339760    0.72174779145060    3.28682520747827
C        -0.36976093167663    1.17484534617297    3.31662218442330
C         2.33449552113068   -2.57784747840519    0.58734809406990
C         3.18437478628670   -1.41180209435135    0.58812170188272
C         2.94520757392097   -0.69213835649536    1.81207408511019
C         1.95082925992583   -1.41404730074934    2.56615000989771
C         1.57863320160633   -2.57683211122832    1.81474110428012
C         3.18759682050953    1.41915919311137    0.59084208395920
C         2.34034501935120    2.58680067874706    0.59176356279712
C         1.58080012641051    2.58051013163260    1.81589486820198
C         1.95288793048359    1.41696872421944    2.56788344688431
C         2.94678020627409    0.69710239184725    1.81395414420041
C        -0.35732664236597    3.44573303647016    0.59163685336298
C        -1.73080580912950    2.99857276032887    0.59250928547509
C        -1.96973135226116    2.29132725933344    1.81546367734933
C        -0.73340081285925    2.27554214848067    2.57300150990971
C         0.25505974457774    2.99813707544826    1.81371341475607
C        -3.39868934784857    0.71699759275464    0.58437462357934
C        -3.39638301649333   -0.71758306781117    0.58695455145116
C        -2.77282608684686   -1.15075674868089    1.82043789854932
C        -2.42185739395950   -0.00069350040701    2.57152864493613
C        -2.77135659976343    1.14858738187406    1.81098837535842
C        -1.73645063931042   -3.00310647620340    0.60309760281122
C        -0.36288206223678   -3.44545046796006    0.59645899420337
C         0.25266009942691   -2.99718131336646    1.81469212737985
C        -0.73357701080907   -2.27746774877779    2.57905150154291
C        -1.97413302403008   -2.29610922533553    1.82463245358711
C        -0.24673382971202   -3.01149917797261   -1.81546527523850
C         0.74419809404427   -2.27202739161900   -2.57300204701605
C         1.96861167080447   -2.27562273535992   -1.81371529049768
C         1.73626877805501   -2.99768653032636   -0.59163835995200
C         0.36226726074440   -3.44323640828225   -0.59251114379474
C         2.79568531077840   -1.15850566338180   -1.81589488174625
C         2.41280204858250    0.00152895829328   -2.56788346220986
C         2.79374627993340    1.16810707289677   -1.81395040881542
C         3.41298250034411    0.72549797418132   -0.59083739643048
C         3.41386366087090   -0.71714593928910   -0.59176157590307
C         1.97589608578141    2.29109947565058   -1.81207186986440
C         0.74709828641534    2.29065109800176   -2.56614787462953
C        -0.23748062136699    3.01259384764768   -1.81474039175061
C         0.37342649403247    3.45770382531064   -0.58734763083652
C         1.74637747069494    3.01389939595933   -0.58811990780792
C        -1.55729193344786    2.57328060332327   -1.81469205810727
C        -1.93213673580420    1.41132198116686   -2.57904632656367
C        -2.94672490386512    0.69722334462158   -1.82463069077525
C        -3.17000031189171    1.40890288818389   -0.60309625304431
C        -2.31876295174775    2.57413052024278   -0.59645970105260
C        -2.91966054230750   -0.69884609043982   -1.82043526261655
C        -1.95972251235271   -1.42296895647172   -2.57152825777164
C        -1.56694789868604   -2.55818577644893   -1.81098561341629
C        -2.32815659666518   -2.57776570575633   -0.58437377915465
C        -3.16951599964280   -1.41580992215185   -0.58695274149235
C        -1.04860940553158   -0.76272275567384   -3.54041507744649
C        -0.99015022889007    0.73257789376401   -3.31853456387913
C         0.37051935506910    1.15906422126484   -3.28708953150810
C         1.21795752427345   -0.00723723317578   -3.28683380469389
C         0.39142647485942   -1.16781086310921   -3.31663980604941
Cl       -1.93128733499246    0.00407527496432    5.26586305741859
Cl       -1.56009118746628   -1.13845135420457   -5.26587478107722
