62
 energy: -137.563166835480 gnorm: 0.000131687068 xtb: 6.4.1 (a3dbbd7)
C        -1.29392206916246    0.00530926068306    3.53467463977615
C        -0.36809074729300   -1.17090288779090    3.30528961919654
C         0.98590633850520   -0.72184084997761    3.28334241960310
C         0.99259274328747    0.71983144434094    3.28670274857719
C        -0.36007561244380    1.17621882422845    3.30755550230264
C         2.33694218910470   -2.58496307320810    0.58355750630809
C         3.18521856224973   -1.42095160707249    0.58320140008562
C         2.95062173366861   -0.69817642846659    1.80978603994650
C         1.95431477359318   -1.41725339561325    2.56270582330847
C         1.57834599180794   -2.57863351720506    1.80907370021538
C         3.19249363799114    1.41207158358995    0.58661912152148
C         2.35060326734990    2.58118995044355    0.59259664126293
C         1.59721304031448    2.57848054521450    1.81797433181399
C         1.96532181775638    1.41161543666385    2.56846120259359
C         2.95728710912490    0.68824642828808    1.81246820274517
C        -0.35322785836050    3.42911617968037    0.59434347414573
C        -1.72964394879944    2.99243349204494    0.61536296650387
C        -1.95232978627292    2.29679111193179    1.78907022223646
C        -0.71517845518152    2.27627428592154    2.56893016004522
C         0.27176164744861    2.99566158631328    1.81702633132667
C        -3.38764983087823    0.70459928426840    0.56533841778916
C        -3.39074231763835   -0.72959651678717    0.56565433225857
C        -2.77132238039648   -1.15902278907203    1.79258325538974
C        -2.41338524701772    0.01760427004164    2.54962194111490
C        -2.77216717204392    1.13572590388605    1.82010714431222
C        -1.73370986634456   -3.00690213485712    0.58131353395367
C        -0.36194861278496   -3.44404033293788    0.58339163655647
C         0.25264621633070   -2.99299834157485    1.80873017057043
C        -0.73050488267808   -2.27121422900864    2.56588145471310
C        -1.97292752904000   -2.28561446448970    1.80104888432822
C        -0.24266308537660   -3.01763813514778   -1.82451888829203
C         0.75185353430763   -2.29696494933214   -2.58102362011337
C         1.97593012150295   -2.29558042089182   -1.82147830414877
C         1.74285225304408   -3.01279942999892   -0.59651371903358
C         0.36932243419183   -3.45564327351356   -0.59541648854705
C         2.79352789415005   -1.16963243518808   -1.82206043177647
C         2.41302322155434   -0.00661996692140   -2.57829039876244
C         2.78949161010221    1.16063277560924   -1.81769902634895
C         3.40974861929830    0.71661362849931   -0.59491822444821
C         3.40870560727836   -0.72585673412313   -0.59735822159765
C         1.96711606804795    2.27781987088668   -1.80962505717349
C         0.73761080023875    2.27353935646703   -2.56521627166494
C        -0.25510344179984    2.98729708983881   -1.81294965189278
C         0.37381244376352    3.44741575387416   -0.57945297451185
C         1.74018296907459    3.00218667815795   -0.58626337568990
C        -1.56649984902064    2.57646081751169   -1.82743381489274
C        -1.93114030576493    1.40858248278535   -2.56126677841400
C        -2.92607978717240    0.68491043852774   -1.80968399522588
C        -3.18390323417184    1.39856988323280   -0.60028358171911
C        -2.49311930617582    2.74617949952494   -0.64169774510304
C        -2.93375661435827   -0.70800985719868   -1.82864670506213
C        -1.94125648005183   -1.42643224699842   -2.58864482777042
C        -1.56477046636455   -2.59468263290567   -1.83009328197631
C        -2.32923409344812   -2.59672205186778   -0.60892932657407
C        -3.17428908784400   -1.43267545765195   -0.61320053317650
C        -0.98484198763812   -0.73004409889747   -3.31150661840864
C        -0.98220589419916    0.71097869269034   -3.30532509206916
C         0.38221445525233    1.15420088914312   -3.30680589528068
C         1.23332417175395   -0.00898628406793   -3.31099476485379
C         0.38774632882293   -1.17495785579540   -3.31270005641861
Cl       -1.92623906140098    0.00797392956177    5.24531915307969
Cl       -3.69909915053572    4.07928433108369   -0.94762235599036
