62
 energy: -137.535279306259 gnorm: 0.000134325233 xtb: 6.4.1 (a3dbbd7)
C        -1.30014744979346   -0.00000000000000    3.54146247769534
C        -0.37408365446188   -1.17393924430139    3.32078815292931
C         0.97829901743922   -0.72151518954343    3.29033853143659
C         0.97829901743922    0.72151518954343    3.29033853143659
C        -0.37408365446188    1.17393924430138    3.32078815292931
C         2.33518484855768   -2.58174272570911    0.59238040926900
C         3.18151363288714   -1.41495727942405    0.59453956848961
C         2.94417425072739   -0.69442385033201    1.81943314096586
C         1.94901071873701   -1.41549926775193    2.57242160140300
C         1.57569812662332   -2.57700705026843    1.81469755642258
C         3.18151363288713    1.41495727942405    0.59453956848961
C         2.33518484855768    2.58174272570911    0.59238040926900
C         1.57569812662332    2.57700705026843    1.81469755642258
C         1.94901071873701    1.41549926775193    2.57242160140300
C         2.94417425072738    0.69442385033200    1.81943314096585
C        -0.36401892666967    3.44154392616506    0.58961665563671
C        -1.73864892188879    3.00069223316726    0.59490090447072
C        -1.97328878938950    2.29067301494080    1.81651341281682
C        -0.73558076295499    2.27461558609390    2.57461474576719
C         0.25039896433232    2.99499688348325    1.81457973059532
C        -3.40245549667401    0.71717214868407    0.58415929058669
C        -3.40245549667401   -0.71717214868407    0.58415929058669
C        -2.77499018238951   -1.14908349352670    1.81502172908987
C        -2.42334233471569   -0.00000000000000    2.57078641613920
C        -2.77499018238951    1.14908349352670    1.81502172908988
C        -1.73864892188878   -3.00069223316726    0.59490090447072
C        -0.36401892666967   -3.44154392616506    0.58961665563671
C         0.25039896433232   -2.99499688348325    1.81457973059532
C        -0.73558076295499   -2.27461558609390    2.57461474576719
C        -1.97328878938950   -2.29067301494080    1.81651341281682
C        -0.25039863215385   -2.99499636141932   -1.81457922079312
C         0.73558105826376   -2.27461541095946   -2.57461440448777
C         1.97328982424517   -2.29067406766976   -1.81651356506796
C         1.73864950131860   -3.00069251085351   -0.59490092504640
C         0.36401929056920   -3.44154385027860   -0.58961644687856
C         2.77498945500672   -1.14908317117522   -1.81502162407640
C         2.42334305506840   -0.00000000000000   -2.57078758972647
C         2.77498945500672    1.14908317117522   -1.81502162407640
C         3.40245468187958    0.71717200679886   -0.58415914639371
C         3.40245468187958   -0.71717200679886   -0.58415914639370
C         1.97328982424518    2.29067406766977   -1.81651356506796
C         0.73558105826376    2.27461541095946   -2.57461440448777
C        -0.25039863215385    2.99499636141932   -1.81457922079312
C         0.36401929056920    3.44154385027861   -0.58961644687856
C         1.73864950131860    3.00069251085351   -0.59490092504640
C        -1.57569795930784    2.57700677163974   -1.81469735443839
C        -1.94901050278378    1.41549923993964   -2.57242146547421
C        -2.94417443474311    0.69442377947486   -1.81943301833139
C        -3.18151384272922    1.41495699786306   -0.59453939867367
C        -2.33518431178525    2.58174223745319   -0.59238004448734
C        -2.94417443474311   -0.69442377947486   -1.81943301833140
C        -1.94901050278378   -1.41549923993964   -2.57242146547421
C        -1.57569795930784   -2.57700677163974   -1.81469735443839
C        -2.33518431178525   -2.58174223745319   -0.59238004448734
C        -3.18151384272922   -1.41495699786306   -0.59453939867367
C        -0.97829859299633   -0.72151515739073   -3.29033794045320
C        -0.97829859299633    0.72151515739073   -3.29033794045320
C         0.37408413511232    1.17393933973426   -3.32078802084823
C         1.30014799973390   -0.00000000000000   -3.54146434097166
C         0.37408413511232   -1.17393933973427   -3.32078802084823
Cl       -1.94486438891710    0.00000000000001    5.26812115712670
Cl        1.94485812908052   -0.00000000000000   -5.26812382912093
