61
 energy: -132.999445565446 gnorm: 0.000281633210 xtb: 6.4.1 (a3dbbd7)
C        -1.29787639945996    0.00000000432164    3.53202116401166
C        -0.37104479933474   -1.17482543413296    3.31059262606643
C         0.97976517196507   -0.72156107778449    3.28104713418785
C         0.97976517644820    0.72156107890753    3.28104713511751
C        -0.37104479300453    1.17482543665674    3.31059261775233
C         2.33542478128096   -2.58262367046985    0.58344648046930
C         3.18204999092604   -1.41541572893300    0.58232164242591
C         2.94371440097596   -0.69403080630190    1.80704033508199
C         1.95046029381702   -1.41556330874519    2.56175470892862
C         1.57765657129871   -2.57867330908826    1.80910634942099
C         3.18204999545102    1.41541572822282    0.58232164470250
C         2.33542478810580    2.58262367167555    0.58344648319032
C         1.57765657895977    2.57867331079046    1.80910635249650
C         1.95046029983375    1.41556330968055    2.56175471165199
C         2.94371440570262    0.69403080587272    1.80704033862205
C        -0.36121075120199    3.44514295431769    0.58582584730295
C        -1.73469664759758    3.00153729451148    0.58916989561781
C        -1.97222480251326    2.29311493009364    1.81061578598467
C        -0.73399994339199    2.27688767370885    2.56852067208592
C         0.25309261319479    2.99783527155566    1.80896441236651
C        -3.39644111152223    0.71758396239248    0.57410460452367
C        -3.39644111305829   -0.71758394756580    0.57410460591651
C        -2.77162061451313   -1.14961447315174    1.80663983911128
C        -2.42167807159505    0.00000000452583    2.56057409731473
C        -2.77162061021696    1.14961448420619    1.80663983877598
C        -1.73469665566784   -3.00153728342914    0.58916989348577
C        -0.36121075980399   -3.44514294674569    0.58582584522815
C         0.25309260455930   -2.99783526547274    1.80896441070690
C        -0.73399995076628   -2.27688766735254    2.56852067247623
C        -1.97222480949572   -2.29311492063167    1.81061578529980
C        -0.24585749278685   -3.00970009706906   -1.82231347891033
C         0.74437854442417   -2.28840468185971   -2.57821405549441
C         1.97266852327517   -2.28859742292507   -1.82114066285457
C         1.74029469463939   -3.00828364722466   -0.59623199638182
C         0.36724167456357   -3.45112318932047   -0.59442676656956
C         2.79025577412892   -1.16550189770485   -1.82330220692034
C         2.41075474533030    0.00000000198422   -2.58030010362313
C         2.79025577827044    1.16550189922700   -1.82330220578802
C         3.40596463724013    0.72108336151683   -0.59876616027370
C         3.40596463704849   -0.72108336234352   -0.59876616175830
C         1.97266853034081    2.28859742637546   -1.82114065973501
C         0.74437855164356    2.28840468814148   -2.57821405360862
C        -0.24585748450114    3.00970010534045   -1.82231347695800
C         0.36724168410032    3.45112319596087   -0.59442676447047
C         1.74029470278545    3.00828365054439   -0.59623199388792
C        -1.56846053539552    2.58048541308143   -1.82120275100363
C        -1.94728838528072    1.41533158061688   -2.58356901931897
C        -2.94242062212679    0.69433934185826   -1.82975459076772
C        -3.17477337003895    1.41443838854626   -0.60325811821203
C        -2.32688214240381    2.58112377757676   -0.60085949965598
C        -2.94242062276493   -0.69433932464098   -1.82975459041280
C        -1.94728838894581   -1.41533156710758   -2.58356901921603
C        -1.56846054234575   -2.58048540078460   -1.82120275289398
C        -2.32688214911513   -2.58112376399430   -0.60085950099764
C        -3.17477337312919   -1.41443837196641   -0.60325811840739
C        -0.99138630189708   -0.72097082492282   -3.31026332273282
C        -0.99138629970860    0.72097083610767   -3.31026332146264
C         0.38053783954464    1.16547457165543   -3.30881396926307
C         1.22667969931453    0.00000000162286   -3.30781189490700
C         0.38053783574209   -1.16547456442478   -3.30881397287963
Cl       -1.93714244675712    0.00000005668710    5.25460421555297
