63
 energy: -142.116799343721 gnorm: 0.000123372244 xtb: 6.4.1 (a3dbbd7)
C        -1.28725553412568    0.01362552867231    3.51348591252179
C        -0.34492628614499   -1.15145420187940    3.27364440894740
C         0.93270653785321   -0.71842623931530    3.22856197272221
C         0.96409354255803    0.73728991682275    3.24764809363140
C        -0.37556652825364    1.19986729026089    3.29853435145829
C         2.30527357713415   -2.56184325099109    0.57428077527542
C         3.15307098663186   -1.39598281464395    0.57441645879431
C         2.94814592008364   -0.69038777103932    1.79462602881093
C         2.08763204905866   -1.52023691609758    2.72618847090367
C         1.56887667809115   -2.59534072262567    1.79737627003951
C         3.16671202428329    1.40889123419674    0.57109131192075
C         2.32680249990910    2.58128034683713    0.57422485373430
C         1.57312844497973    2.58842513180484    1.80345843159639
C         1.94000930315664    1.42980634472452    2.55478921955660
C         2.93129942452726    0.68451397429341    1.78765328731579
C        -0.36412119046520    3.46095845497463    0.57731094940302
C        -1.73943903785542    3.01759063553402    0.58105015007245
C        -1.97765413471437    2.31744168297418    1.80554167580447
C        -0.74102069605086    2.30992527276058    2.56487620531259
C         0.24757905476411    3.02147124328109    1.80413078424573
C        -3.38573236955864    0.72297532751972    0.56789166046527
C        -3.37711680226119   -0.71151315397898    0.56845488137241
C        -2.74275400435120   -1.14393740474056    1.79348755788805
C        -2.41120078505264    0.01693724415963    2.55127014969651
C        -2.76524159015933    1.16081069830063    1.80071472948390
C        -1.71856175021107   -2.97240241743372    0.58356267693775
C        -0.34773889420880   -3.42117450440795    0.57950465697432
C         0.26817057969354   -3.01683247390956    1.80326541390854
C        -0.78910921308275   -2.46917136278669    2.74392614125382
C        -1.96386957188523   -2.28990204044416    1.80371671757989
C        -0.24713725291463   -3.00111180279968   -1.84078894595872
C         0.74164579345782   -2.28181412417725   -2.60045385519180
C         1.96901136926221   -2.28067748279135   -1.84292037297016
C         1.73037216896472   -2.99586644785727   -0.61540079546192
C         0.36888977718549   -3.43668528880811   -0.61191371218847
C         2.78376199738363   -1.15734114751064   -1.84256513635891
C         2.40768929092333    0.00712688099680   -2.60022024099377
C         2.78763669614575    1.17180295105907   -1.84017436039822
C         3.39985713913022    0.72288136783146   -0.61599424870455
C         3.39368991587322   -0.71070249798941   -0.61445658512815
C         1.96798155978651    2.29270481605359   -1.83239767241171
C         0.74084096305648    2.29440443680852   -2.58715388977658
C        -0.24827622471410    3.01614926461367   -1.83009704023409
C         0.36399078983910    3.45906210728974   -0.60314842774570
C         1.73602457359048    3.01072772195638   -0.60442070837801
C        -1.57135916712014    2.58769991808288   -1.82896121612477
C        -1.94978255085673    1.42259087394255   -2.59149952063741
C        -2.94309275249301    0.70125201450255   -1.83754902105721
C        -3.17345492819261    1.42093720016780   -0.60972324646921
C        -2.32933784842732    2.59107783742760   -0.60889635739832
C        -2.94419286714994   -0.68739056204140   -1.84008395973446
C        -1.95039057251275   -1.40861154229598   -2.59830732492596
C        -1.56817778571072   -2.57043694276289   -1.83624705738571
C        -2.31911114433513   -2.56577941263744   -0.61018785030214
C        -3.16784959013204   -1.40671299188638   -0.61317486088599
C        -0.99558362461411   -0.71256390680779   -3.32662001652311
C        -0.99525203092253    0.72902495490188   -3.32255147305900
C         0.37619364509606    1.17307944516025   -3.32297710294648
C         1.22201163471975    0.00855798565199   -3.32752341990745
C         0.37615134914280   -1.15729912093510   -3.32994240815270
Cl       -1.90809862843232   -0.03451440570481    5.23082176105183
Cl        3.04205390395710   -2.19297375512922    4.10701556797338
Cl       -1.18562102182867   -3.63051530780248    4.07836941136213
