78
 energy: -210.369784160358 gnorm: 0.000722648797 xtb: 6.4.1 (a3dbbd7)
C        -1.26279535405721    0.00006433795375    3.64119281541314
C        -0.37163259534897   -1.30535878487709    3.66581207625262
C         1.11972274082877   -0.79243398528249    3.57188247787587
C         0.96703768945013    0.65389111129013    3.19538097909509
C        -0.30614466083594    1.10132040247074    3.25101688442777
C         2.30719936654582   -2.63010625422838    0.52777899913880
C         3.12963160146333   -1.46093195353043    0.53874503996343
C         2.86699200167409   -0.73785193761297    1.75300778339292
C         1.96896356538813   -1.41751084929057    2.51809655515835
C         1.66879111435942   -2.75124391089602    1.89404082687376
C         3.49531043958263    1.51015862473082    0.61431822046588
C         2.39129009997012    2.54393203995771    0.57818812896453
C         1.59269280681142    2.45327229495972    1.73371092153393
C         1.95685436002042    1.35484148555351    2.47183888477438
C         3.20157674700767    0.70598132289876    1.93785123768866
C        -0.31942774799503    3.70076715142157    0.64616196167947
C        -1.58372256001441    2.93747193637435    0.60802782619309
C        -1.99859575140684    2.43599092544372    1.94491108454545
C        -0.72237826434455    2.48193274298047    2.83821518781289
C         0.36675268478826    3.26256459798058    1.98618745790028
C        -3.21422629758463    0.64304060984744    0.58826485336781
C        -3.37639770464366   -0.71835323907390    0.59859734760940
C        -2.98102752150417   -1.22238866167897    1.96496320944809
C        -2.28620238829399   -0.01707933409870    2.56435453915050
C        -2.55261963806886    1.06683693092093    1.81363536714806
C        -1.75746750848582   -2.93000897065033    0.55609934697465
C        -0.41262248306801   -3.34053262794839    0.54977183609191
C         0.20048110298047   -2.87519583042948    1.77776319721039
C        -0.69837920173354   -2.19626723319715    2.51697261515110
C        -2.08665213826507   -2.45578300468339    1.95104345001291
C        -0.29107702017504   -2.95889990433304   -1.82828615790759
C         0.72453579649954   -2.30633903794991   -2.62186652622709
C         2.07915223577399   -2.49816659789509   -1.98625280570229
C         1.71494067533306   -3.04971035700188   -0.62670616821833
C         0.31819759708542   -3.40800722774572   -0.62606083222859
C         2.78380844336285   -1.19735434780271   -1.85456680270887
C         2.39513026032278   -0.03512367688428   -2.56580519416292
C         2.81225501710077    1.12802100852613   -1.78965370861008
C         3.36137356436226    0.68955237493839   -0.62486496630391
C         3.34473451049225   -0.76379440122834   -0.64134237059500
C         2.15478189578213    2.44262478012919   -1.96240945039361
C         0.80068104566209    2.27858516319141   -2.59338305035257
C        -0.16397272355589    2.88074904476807   -1.79109100954904
C         0.45196701454324    3.35598034076443   -0.57370054118770
C         1.78766986862548    2.97648707173260   -0.59140910585483
C        -1.52140532257091    2.56273741779587   -1.83294137001533
C        -2.08284035769128    1.52716452250758   -2.77352579398198
C        -2.92197543422172    0.68127276536683   -1.82828925728914
C        -3.06131762273577    1.38064128398322   -0.58978051197138
C        -2.15479017784914    2.48372090324954   -0.56240562121748
C        -3.01010952402047   -0.66929148566985   -1.86120158677918
C        -2.12933177410770   -1.48555136583427   -2.77270510123117
C        -1.61176098177151   -2.53411415003451   -1.81826268103832
C        -2.35304136474880   -2.52994172201892   -0.62061979197792
C        -3.44052147061957   -1.49312912560564   -0.66218768204860
C        -0.98455830255986   -0.64955930643824   -3.25687366295691
C        -0.97439066179261    0.69913396658145   -3.31460863981028
C         0.42995039978568    1.22441190706566   -3.56148407829443
C         1.25265693478453   -0.01344958679897   -3.33331691708126
C         0.38140760986957   -1.15265883964010   -3.26864642177063
Cl       -2.03450480808116    0.33053308001547    5.23705536728363
Cl       -0.65593917243804   -2.29217339074314    5.12935286398313
Cl        1.98315270592721   -0.89169432456615    5.15250642927626
Cl        3.08250211578633   -3.71935040474619   -2.91530480002129
Cl        3.17126810704134    3.62488517674736   -2.88427290601810
Cl        2.35927204686525   -4.12164350514685    2.84886734987405
Cl        5.09735329055526    2.32183726197177    0.61595133191744
Cl        1.03302203163195    4.67105345645002    2.87483745029597
Cl        4.52509180527518    0.82558324999837    3.14944308322596
Cl       -0.66985067857929    5.50799256910310    0.60837718639901
Cl       -3.08751835874245    2.25098164245373   -4.09463832950671
Cl       -3.33505144989685    3.50503071735815    2.56354080971006
Cl       -1.03793739660561    3.31015885053129    4.39860920670449
Cl       -3.02028778284670   -2.20891763849737   -4.16952935876339
Cl       -4.51127655244284   -1.45795981815055    2.89816584811064
Cl       -5.09147973198695   -2.23100025550073   -0.93446083438098
Cl        0.59719448957001    1.83890256803279   -5.27693410092302
Cl       -2.77326430255576   -3.85444524800275    2.85726950285174
