180
 energy: -610.273986894916 gnorm: 1.147520971418 xtb: 6.4.1 (a3dbbd7)
C        -1.24822692990694    0.03737845268108    3.34967743636578
C        -0.39457265886607   -1.14514936477175    3.32461610074605
C         1.02407641355851   -0.74601872338653    3.37298257833415
C         0.96829867900443    0.72097847070637    3.34992040414115
C        -0.41200167486136    1.21297951957264    3.37687395165827
C         2.38599706682157   -2.66104155501991    0.62748539110500
C         3.25649395042082   -1.45281898797733    0.58576799244102
C         3.00577885908676   -0.74454675998462    1.86389372592665
C         1.92724900725471   -1.45727133913417    2.51895477565978
C         1.57448295002707   -2.52959538503645    1.82095543141987
C         3.15698635527413    1.47030378024659    0.59374575840287
C         2.33308505681726    2.57942618496149    0.57898167749151
C         1.54859155942174    2.61196968735242    1.77519201439582
C         1.96829616588242    1.46168894419923    2.58649636341149
C         2.99223415024836    0.72480436304263    1.82361384480214
C        -0.38948249218240    3.55415677920019    0.64051013703134
C        -1.73351828552784    2.98251079580307    0.63885482907711
C        -1.97621850135304    2.29216443622295    1.76158373266625
C        -0.78004200207771    2.39851725271408    2.62147076176690
C         0.28112509893292    2.99556055365625    1.80807413020988
C        -3.36898519505249    0.68504358757195    0.62282635391025
C        -3.40558256281509   -0.66416505629633    0.57950629560114
C        -2.85201562040197   -1.17443394883945    1.82073966249868
C        -2.47925853484997    0.03247833908870    2.59420932366994
C        -2.82101884286690    1.20053315018408    1.79299231503439
C        -1.70311061513834   -3.00902499883514    0.53458377048102
C        -0.38380785642520   -3.48550150164891    0.56112692891786
C         0.26308250387636   -3.12184932537095    1.83963993846282
C        -0.76530664137221   -2.34159215968485    2.58059941535458
C        -2.00360125602307   -2.37212789022758    1.80842735967988
C        -0.22490994979318   -3.01440104325240   -1.77833156529663
C         0.76110628056091   -2.36003344686693   -2.65314638470529
C         1.95248221892554   -2.28999884270387   -1.82171655107121
C         1.76167218753974   -3.10785421027655   -0.63636383605715
C         0.32392634748100   -3.43286110424264   -0.61624291181414
C         2.84185301542528   -1.17722594748429   -1.85950493532927
C         2.36143367595638    0.00277160960290   -2.60115363932102
C         2.85320987541848    1.20156795455780   -1.89814959210542
C         3.49109362057805    0.74031810855391   -0.60907074526378
C         3.38735358245298   -0.70138719631539   -0.62011126597691
C         1.92204040685526    2.31494324974465   -1.81449637066851
C         0.77834866082470    2.26990385759406   -2.58708347448945
C        -0.24513366507840    3.07792416063377   -1.88229783283601
C         0.40374331933124    3.54939081729252   -0.61537108686520
C         1.76896637049471    2.99712399005710   -0.60807010648130
C        -1.57273192999443    2.55980428486255   -1.80862538484847
C        -1.98313994503706    1.45772568816359   -2.64898638189652
C        -3.02501796338796    0.69802510677469   -1.87317342072406
C        -3.27661932679019    1.44729175850029   -0.59861775257403
C        -2.38138759998114    2.65776019196117   -0.60923047067553
C        -2.87430260108393   -0.73788425512391   -1.83714107744542
C        -1.95688803884168   -1.38501325498290   -2.56632727669833
C        -1.63152010444909   -2.66852290721332   -1.88186175567000
C        -2.31120598670696   -2.58627904115796   -0.56894887443046
C        -3.27056707405500   -1.47122589657858   -0.62052223646810
C        -0.96550921922086   -0.71572612578943   -3.33155491329851
C        -0.93630018467496    0.70543661587540   -3.33438619393690
C         0.37167830838988    1.16779307034632   -3.32759099371011
C         1.22676998388717   -0.00683549997699   -3.31988829767859
C         0.35000201668019   -1.13545284638361   -3.33363291347866
C        -1.81899278131910   -0.00734811514768    4.80836796273891
F        -1.29456157528489   -0.02987533460289    5.98802384416981
F        -2.59260295198527   -0.87387168322221    5.45177567026394
F        -2.63452276424889    0.86705220762103    5.39215430127403
C        -0.66068574094148   -1.58519587258494    4.67374644935000
F        -0.29680251833060   -1.31853174573844    5.92329614239871
F        -1.57996863698650   -2.12364989765491    5.46631806783696
F         0.22664086133000   -3.00370216002180    5.56778293488073
C         1.54451424304431   -1.13774105584723    4.73799742871206
F         1.25077539231724   -0.90065432451147    5.91007737321888
F         1.77918859776396   -2.44241571907575    4.90110737776901
F         2.77995614853310   -0.97532831263364    4.99669643286837
C         1.35040957884893    1.12889680431090    4.73067115075856
F         1.14712832764311    0.73067778537828    5.92490698146706
F         2.81176129702492    0.64455982581688    5.60814020417318
F         1.63346425855016    2.22074749771362    5.36892439267641
C        -0.55261126843431    1.74831720839364    4.82191298360226
F        -0.36464543047744    1.26310269456395    5.98979619402116
F        -1.62307847703860    2.21709279970021    5.38077193906227
F         0.02644840960050    2.77021552318706    5.35479040038133
C         3.33863603962364   -3.79654569596248    0.96452306413496
F         3.85656602843660   -3.87009960388877    2.24111419741338
F         4.33442671038104   -4.10606786879345    0.29298556358012
F         2.90973961706784   -4.93343652947169    1.32488872487944
C         4.66227883503720   -1.99639068262959    0.72478817214717
F         5.09405382850524   -2.70901091158407    1.61977621637483
F         5.18122975554731   -2.63671330622023   -0.28224107000399
F         5.66378755915042   -1.16273580326069    0.68246772304818
C         4.22961914291348   -1.07493870810997    2.72221791343593
F         4.34877918722696   -2.34405048567864    3.21879161682285
F         5.41746627165055   -0.83853150180458    2.43156561213588
F         4.22445920596812   -0.84565438963793    3.99355614779372
C         2.66189506764374    1.98299462937289    3.71176912006100
F         3.95625097931009    3.24656427698794    3.25396408511234
F         2.36076542501884    3.25594575422700    4.15422599279148
F         3.46118893541118    1.62844407136435    4.53644527839439
C         4.25172049623869    0.92038793545875    2.56322401582747
F         4.70349706779650    2.51333323024243    2.59186419464407
F         5.40877118709497    0.95893255163683    1.96900394266779
F         4.70853413834249    0.82871649752997    3.69923866601201
C        -0.57042681937421    5.04257696826917    0.92052933312293
F        -1.28406866534713    5.37968791846965    1.89829034618475
F        -1.44250566767904    5.68180688336042    0.18178179346043
F         0.48280973059061    5.65029402570480    1.40253244920385
C        -1.12251156089114    3.42615142017649    3.69077048567608
F        -1.57299687852355    4.53458200080971    3.36406913298722
F        -2.36024616783545    3.21745795784486    4.19306620770278
F        -0.01467486731751    4.01984091532074    4.16854029375939
C        -3.94081501066829   -1.80346408143642    2.53921352013705
F        -5.35541167700160   -0.70267257462636    2.59278125216524
F        -4.94695059217556   -2.39442582953877    1.99257814721388
F        -4.31120446570778   -2.05298396524561    3.70331529303728
C        -3.37487099911402    0.08041010707742    3.71185617149747
F        -5.02681355707393    0.28963700879047    3.22275835401581
F        -3.90591834928083   -0.66200799167274    4.52220990011243
F        -3.80492816318184    1.28073747862350    4.14717640964548
C         0.42193687829522   -4.44901746766828    2.56855304320686
F        -0.56562200391357   -5.28890383935112    2.37083141165826
F         1.18935664760817   -5.28635799793896    1.99363566851566
F         1.14275138781200   -4.32684283158591    3.68682490549598
C        -1.14563491825233   -3.24529131486050    3.67708373641982
F        -1.36625363238334   -4.56756960872909    3.74545017626705
F        -0.14525601523967   -3.82021054287448    4.76685506916348
F        -1.98314758802546   -3.36110135566891    4.61307964427506
C        -2.89832987024200   -3.39906144812521    2.51812845110262
F        -2.49514762335182   -4.73920568945832    2.37004902782460
F        -3.93138829211010   -3.89372953736852    1.88863322391891
F        -3.33230283598687   -3.46616089044842    3.68879314932301
C         1.06715897991637   -3.32008132777296   -3.78542264242780
F         1.36216445582706   -4.49692970715249   -3.45331671867264
F         0.04923177532101   -3.52353606502022   -4.57009605055266
F         2.03122472305639   -2.90067092819123   -4.55435376534100
C         2.48220969779675   -4.42575838898981   -0.92484007188033
F         2.10135760196216   -5.08919982261731   -1.93561549559286
F         3.69746737904551   -4.30970563932537   -1.40239379020285
F         2.12357437372402   -5.44379414323596   -0.18901724737728
C         4.04448815781514   -1.72827631516927   -2.66996279439711
F         5.01033757952822   -0.94504047940139   -2.85533828495817
F         3.73741765316792   -2.04993040009737   -3.88561174865906
F         4.64445578375012   -2.72106081120440   -2.14035312025352
C         3.99910219340747    1.74946571408011   -2.71750636078014
F         4.88450059373635    0.95661702710820   -3.16614620809567
F         3.61677893283476    2.10427138906609   -3.93668783612279
F         4.50565075292910    2.87150431656734   -2.29014510077283
C         4.97026083785153    1.05395868498737   -0.79533340203518
F         5.65428457816787    0.39885061321484   -1.64578174495540
F         5.28191549106653    2.32462764441206   -0.73900520079102
F         5.76177286364586    0.66268578352761    0.14194649943816
C        -0.41268799874114    4.33932906407689   -2.71484738774009
F         0.70334934214737    4.86127608955871   -3.16263845881675
F        -0.80038217871218    4.15494080339870   -3.92699426117403
F        -1.33620371511722    5.16252698853388   -2.34223190000023
C         0.61335304268631    5.00770744315534   -0.79949028672702
F         1.61825685804811    5.38915584925729   -1.83690607069514
F        -0.20900241393726    5.87071538130475   -1.13559913646910
F         1.49694652623725    5.62808700882128   -0.10966841145380
C        -2.75844684518510    2.08798767790423   -3.81620721275876
F        -3.52656346896070    3.07989305722423   -3.56961317710457
F        -2.02664921394417    2.82413836418118   -4.60417662252610
F        -3.17567131156255    1.25228737458697   -4.71481772369238
C        -4.29446002162761    0.87465244765605   -2.67273704914951
F        -4.80590572186484    1.91574954538236   -3.11555364916358
F        -4.35238195737911    0.21314441262033   -3.81881287934875
F        -5.37765389757650    0.31190181714842   -2.25990895279585
C        -4.66866212378469    2.00379721604004   -0.73999406702654
F        -5.11140183525429    2.81247709328535   -1.56582426924165
F        -5.65351150877629    1.14550211792002   -0.69918796032948
F        -5.14593194980634    2.64341930173250    0.32186331586721
C        -3.34280873472987    3.83181396153532   -0.84272904341419
F        -3.83982623745128    3.99240173610750   -2.00859869770823
F        -2.78432322426322    4.98622149970155   -0.96351025587100
F        -4.10992561067687    4.11684771551801    0.16842981119190
C        -2.27072687924948   -3.78156498809338   -2.65840589636731
F        -3.51064037277300   -3.63744999040003   -2.89281927081327
F        -1.81833140094483   -3.87161467053174   -3.87600757618900
F        -2.12922557886526   -4.93774514146625   -2.02959100370027
C        -4.63776571562520   -2.05696377692266   -0.85814261510349
F        -4.78691228431587   -2.69949429025850   -1.93473897801613
F        -5.57725278372884   -1.15337816775356   -0.92449389985030
F        -4.99079503803243   -2.89729701330407    0.07581594831473
