156
 energy: -518.550340070207 gnorm: 0.475303920586 xtb: 6.4.1 (a3dbbd7)
C        -1.28065899240655    0.02001552770997    3.45172509553308
C        -0.38675181235637   -1.21619176853985    3.49794308285240
C         1.06342708592236   -0.74468478564738    3.45903988693466
C         0.93353994375330    0.71916179909999    3.22955140070558
C        -0.31749283973807    1.12738847837019    3.22622362215872
C         2.29995970858598   -2.54644340689830    0.61933148076793
C         3.32420978418293   -1.47597179469655    0.63313225903732
C         2.90578599161510   -0.66539262665053    1.81496529507365
C         1.97470742799305   -1.41823605647654    2.53690633671424
C         1.58906806111126   -2.51041994262315    1.76589922073614
C         3.32265526956935    1.48320671802634    0.63153658852946
C         2.30204703697785    2.56321962729624    0.54767509623603
C         1.65646849737721    2.72355609237288    1.87728208093652
C         2.05851505681590    1.48649519350332    2.68916356550303
C         2.92266813417139    0.67240680822603    1.80521551352481
C        -0.36209882437586    3.40520597884053    0.60849571003448
C        -1.71735555449453    2.99313986350965    0.54416833620780
C        -2.06860776266941    2.42631386278751    1.88379821464508
C        -0.76474282801801    2.40743204721455    2.68540035232086
C         0.21737518853420    2.98680419860815    1.73580952135846
C        -3.36153484560796    0.65406054144960    0.55765946667271
C        -3.37613852085050   -0.68956689413862    0.55784045983870
C        -2.90342219142778   -1.20992537009611    1.87729993701618
C        -2.40308188525444   -0.01395834556023    2.54249939840283
C        -2.94024632500685    1.18197241841823    1.88298563144059
C        -1.72294780738836   -2.99928601801624    0.59236619888990
C        -0.41295146556308   -3.43110959266284    0.58572171090329
C         0.27230075703527   -3.15796164698380    1.87163971698182
C        -0.79558413581818   -2.41101030218819    2.65952603040344
C        -1.96535165557147   -2.30824807400034    1.75471239238141
C        -0.28903802203200   -2.96950254749975   -1.78963281510573
C         0.77314217207837   -2.42238384213947   -2.66702625226334
C         1.94224240993397   -2.28610702420501   -1.79045461131945
C         1.81477719002575   -3.13751169314480   -0.61547138584321
C         0.35853121977031   -3.63081894882139   -0.62664627647373
C         2.89085140757501   -1.19344035928456   -1.88278117157119
C         2.40508581241068    0.01496182409478   -2.55501193225357
C         2.89517903524560    1.21523464874301   -1.89270015237909
C         3.33809759760313    0.66408152627230   -0.58486556740520
C         3.34456387348166   -0.65777774635304   -0.57662227574965
C         1.92344320148887    2.32192454661011   -1.82714016784404
C         0.73849681443855    2.30145603789501   -2.56665032541821
C        -0.27430110867478    3.00413124336058   -1.83740085536583
C         0.38138035995924    3.61932299023162   -0.63821164311922
C         1.72778762482822    2.96207989503787   -0.59573561840390
C        -1.56430121034322    2.60860536624282   -1.83581105579105
C        -1.97691998071691    1.42797478774318   -2.56638343164314
C        -2.86654472928257    0.72932916144196   -1.82966381468178
C        -3.30464688206262    1.50040713708472   -0.63558832143235
C        -2.29235772053750    2.60358885458687   -0.59213161326751
C        -3.09063845104960   -0.72554873736917   -1.89246756912795
C        -2.03397937218029   -1.49041822633455   -2.70084481904158
C        -1.55022499816354   -2.56803185688638   -1.77970568896081
C        -2.37371040553563   -2.57748683552914   -0.60610653354473
C        -3.14998770357037   -1.45861413203555   -0.58624446896485
C        -0.98470419929057   -0.64557388758147   -3.27782646783831
C        -0.97395223751742    0.72224562339546   -3.29704523517825
C         0.34777307305581    1.20701151223791   -3.30484024799676
C         1.27904042705988    0.03619371659579   -3.46181821810002
C         0.37226138841983   -1.19570318713978   -3.47472327044296
C        -1.87154048035330    0.16063898311731    4.88819714281427
F        -0.92812233403903    0.65938644599507    5.73480155936839
F        -2.85709933990202   -0.71576747570923    5.07263939743093
F        -2.63549844470642    1.16008534721793    5.10888928748273
C        -0.56535822418201   -1.78623037062422    4.95088231287378
F        -0.34743989282627   -1.10576929139590    6.27729670765424
F        -1.68144007416329   -2.08871630794285    5.51020725977427
F         0.18257147272545   -2.67285777406809    5.51141882055813
C         1.65275265080672   -1.00616764674497    4.85695183479975
F         1.19427363126034   -0.04895430306794    5.71436952700570
F         1.92692578603195   -2.34654552263150    4.94141443645711
F         2.89836110526993   -0.73301190196681    5.01583713378474
C         4.68355772890851   -2.07392696058342    0.92993319885581
F         4.60971084948073   -2.79701696974059    2.03152401033280
F         5.13305887178285   -2.82362794282726   -0.01653563875774
F         5.58051576376766   -1.12705751069167    1.04745647579296
C         4.71678642068306    2.04959981558185    0.82094155449300
F         4.91274829674202    2.77926280000713    1.85507234295199
F         5.03833647058692    2.88928695266139   -0.12203605030002
F         5.59623425239907    1.08411604691735    0.94762663097424
C         2.24374161609649    3.94895921912532    2.57683614160299
F         3.53021891720792    4.08123058329011    2.61490014369336
F         2.00196203478850    5.05518303325852    1.91054478806653
F         1.76241218069248    4.22771548963914    3.74083594350116
C         2.88620292268473    1.97215684401091    3.88744521367568
F         4.03824563190278    2.53274322774009    3.65690615888887
F         2.16272600442332    2.60149187533031    4.77421814915989
F         3.43278947325118    1.03056216054550    4.57980423775542
C        -2.93290388210614    3.51873512432067    2.50109850115272
F        -2.43999715055256    4.94965440286312    2.40943001079443
F        -3.90482190368732    3.99484880700263    1.80818652486719
F        -3.27778854059016    3.53513251405057    3.73038711768212
C        -0.93584431526713    3.35700789960889    3.88121127118186
F        -0.97147399234976    4.59241330085014    3.53273300092589
F        -1.77016347294225    2.93208488688834    4.78843509276517
F         0.10480581303303    3.44152720502350    4.66470249594828
C        -4.12368225774992   -1.80308278736230    2.62547113146285
F        -5.16859726074337   -1.08848520879411    2.72684261957220
F        -4.59072771443542   -2.84749851888686    1.97660354408753
F        -3.88201711311152   -2.08384743967131    3.85164408054230
C        -4.22852218995210    1.61320608507349    2.66343704204366
F        -5.19447555752929    0.75891650341109    2.72301848800266
F        -5.03865576166526    2.45466271478991    2.05905143041637
F        -4.09683015364043    1.70861998413435    3.95422645273503
C         0.52427662798012   -4.49306069652913    2.58033088112037
F        -0.47861486449784   -5.31719932951236    2.45085079909153
F         1.38545989202731   -5.27425160885854    2.00124223730698
F         1.22894578172676   -4.31376391278061    3.70174712902835
C        -1.26275048535643   -3.38954487419300    3.74920425913587
F        -2.06970380878764   -4.72047671401636    3.21825819333307
F        -0.52765918839298   -4.12747246890211    4.48928983409106
F        -2.41377429080549   -3.30946518188239    4.30218026734786
C         1.11414201314345   -3.49230292125611   -3.76054533402303
F         1.51520295741775   -4.66113246200293   -3.42607983949607
F         0.01286874027354   -4.03218766484699   -4.31017460822203
F         2.29422089887297   -3.27855558207742   -4.37051428144595
C         2.69864352742827   -4.40693599194760   -0.80596792845194
F         2.63668147153417   -5.05947977078276   -1.91431196644844
F         3.96523346978192   -4.19203415734027   -0.89682280044455
F         2.68426173243835   -5.19851136543361    0.23097002417262
C         0.34036961279453   -5.14404502397992   -0.84276876765740
F         0.77478345975859   -5.64984159598297   -1.93539592174080
F        -0.91046545102232   -5.58265850380397   -0.93825127101707
F         0.83677235257780   -5.85640461909935    0.10958495946262
C         4.12174204985460   -1.74253399235048   -2.66499335231202
F         5.12924320409712   -0.94606183647128   -2.75310998191388
F         3.85269938921101   -2.07216916255265   -3.87345090337364
F         4.67627501864159   -2.77279335456028   -2.13512306083210
C         4.09661355407261    1.79444660079730   -2.66636501214744
F         5.10727074887649    1.00471152951582   -2.76769641612405
F         3.78094130852274    2.19020802941006   -3.84884098314106
F         4.59501836159082    2.85688410229683   -2.11243853655457
C         0.54114178111193    5.09379123078079   -0.89704717626793
F         1.23464222979009    5.26289265659742   -2.01361441845546
F        -0.65559383473091    5.64355257963207   -1.01910873262028
F         1.17379721952686    5.67892495768778    0.07988458128859
C        -4.66277133721674    2.12145798504915   -0.90554726240735
F        -4.61269034040611    2.79789513264498   -2.03853701583336
F        -5.61445793854735    1.23936060559456   -0.92433423983143
F        -4.99942602432402    2.96271341502394    0.02670708519207
C        -4.43329280581401   -0.95749905739561   -2.58480937514168
F        -4.89796447365489   -2.19846293604685   -2.47768729454407
F        -4.49872984694169   -0.31198270051724   -3.73795944602758
F        -5.45604586669681   -0.45852239699330   -1.95534544391630
C        -2.77654081301903   -2.17253574139395   -3.85087759887104
F        -3.58740253751836   -3.15047771927485   -3.47460487882354
F        -3.15418175906666   -1.29249406757662   -4.76171906707602
F        -2.06508613895100   -3.00240708041407   -4.53806886797048
C         1.88983448417519    0.15279097486207   -4.86323294823739
F         1.04279214908595    0.49100186594180   -5.78711337597548
F         2.57839243780617    1.23949313230130   -5.05836632764277
F         2.82276538878290   -0.74201585412067   -5.10007702487172
C         0.38956158938403   -1.71338195041510   -4.90766342720807
F        -0.29721476076389   -0.77204951095116   -5.97196091026497
F        -0.45234709915179   -2.50264734185851   -5.39998655685980
F         1.42786182680745   -1.98257287329530   -5.59611456330103
