62
Properties=species:S:1:pos:R:3 energy:=T -137.552600434199=T gnorm:=T 0.000207518227=T xtb:=T 6.4.1=T (a3dbbd7)=T pbc="F F F"
C       -1.29990161       0.01069854       3.52305360
C       -0.35717919      -1.15767989       3.29653281
C        0.95056786      -0.71384586       3.26869715
C        0.96946101       0.72484532       3.26092011
C       -0.38074458       1.18865756       3.30008308
C        2.31452272      -2.57292883       0.57507388
C        3.15612019      -1.40243981       0.57800899
C        2.94768917      -0.69365159       1.79890939
C        2.08141465      -1.51812335       2.72562267
C        1.57451934      -2.59847950       1.79651553
C        3.16517023       1.40312453       0.57404309
C        2.32113260       2.57273737       0.57784102
C        1.56900970       2.57622138       1.80914600
C        1.94426692       1.42679026       2.56439216
C        2.93021358       0.68028773       1.79276218
C       -0.36807684       3.44673078       0.58607624
C       -1.74380822       3.00899999       0.58380003
C       -1.99005487       2.30114248       1.80537448
C       -0.74495390       2.29048726       2.56626245
C        0.24212249       3.01067526       1.80795721
C       -3.40846789       0.73129488       0.57152588
C       -3.39432659      -0.70562184       0.57699158
C       -2.76682770      -1.13116527       1.81805189
C       -2.42659791       0.00252855       2.55047727
C       -2.78994940       1.16927149       1.80035939
C       -1.71680611      -2.99733060       0.58259139
C       -0.35151796      -3.45017102       0.57251874
C        0.26326218      -3.00233699       1.79038773
C       -0.75086246      -2.29623455       2.56949936
C       -1.94513997      -2.28897743       1.82703892
C       -0.24290539      -3.01479543      -1.83734448
C        0.74522658      -2.28972065      -2.59671955
C        1.97319469      -2.28870353      -1.84093916
C        1.73600455      -3.00921483      -0.61317859
C        0.37290888      -3.45830524      -0.61510074
C        2.78519389      -1.16577343      -1.83743874
C        2.40701710       0.00330345      -2.59465732
C        2.78780271       1.16634082      -1.83681256
C        3.39886421       0.71718364      -0.61184471
C        3.39565844      -0.71725001      -0.61051859
C        1.96699067       2.28833645      -1.82980472
C        0.74319008       2.28979800      -2.58335431
C       -0.25037106       3.01241762      -1.82106163
C        0.36104808       3.45338225      -0.59956015
C        1.73222887       3.00505852      -0.59994104
C       -1.57379632       2.58684004      -1.82591953
C       -1.95121641       1.42062383      -2.58730866
C       -2.94626620       0.70206791      -1.83158993
C       -3.18476626       1.42543239      -0.60937643
C       -2.33491958       2.58928253      -0.60661652
C       -2.93972177      -0.68761647      -1.82294277
C       -1.94547904      -1.41077052      -2.57830765
C       -1.56261179      -2.57591374      -1.82243716
C       -2.30854632      -2.57262387      -0.59293171
C       -3.16629905      -1.39909458      -0.59458735
C       -0.99398643      -0.71700290      -3.31255671
C       -0.99567524       0.72501380      -3.31343163
C        0.37654813       1.16902433      -3.31587745
C        1.22292731       0.00402759      -3.32058573
C        0.37662529      -1.16346710      -3.31939449
Cl      -1.93380865      -0.00619875       5.23157858
Cl       3.05985491      -2.23364056       4.09113217
