63
 energy: -142.091266730570 gnorm: 0.000119901812 xtb: 6.4.1 (a3dbbd7)
C        -1.33896147730075    0.00971183906230    3.58736456923133
C        -0.39773114120020   -1.26990357841330    3.58976874386207
C         0.97006788577429   -0.71712906269380    3.29149301397482
C         0.95449907314303    0.66447993105886    3.21895987201931
C        -0.39446286522494    1.14410518777420    3.27350204664986
C         2.31987299182338   -2.56786217929307    0.56272792221485
C         3.16294212487639   -1.39848403800607    0.56573138349844
C         2.95442279423141   -0.69492432260925    1.78684577143141
C         2.08324504663986   -1.51187574569635    2.71349768329869
C         1.58100074179480   -2.59077118917540    1.78564641768891
C         3.17795696214005    1.41144979890294    0.55812535168004
C         2.33033556037504    2.57745494106950    0.56504727928008
C         1.56951300527503    2.55506595582761    1.79119294532498
C         1.94793405438158    1.40565283853174    2.53439463897214
C         2.93848074451704    0.68369338541925    1.77687432232615
C        -0.36995425758149    3.43833877259710    0.58090843305503
C        -1.74715355497263    3.00554930285627    0.57944047423409
C        -1.99421890330620    2.28980856073940    1.80159444898458
C        -0.74734747582033    2.25125790580496    2.55031712870981
C         0.23981072702731    2.97984055995297    1.79178794349000
C        -3.40950490571633    0.73135833037942    0.57189887679333
C        -3.39153237262523   -0.70339895028512    0.57416431877407
C        -2.76373306625137   -1.12538051295662    1.81858072585153
C        -2.42135339678466   -0.01012744885615    2.55702582642135
C        -2.79408128932477    1.16362787989237    1.80128121158220
C        -1.70169488822743   -2.98830473815321    0.56866529713780
C        -0.34198770211996   -3.44000567256829    0.56188976254065
C         0.26544818948853   -2.97677588748449    1.78295244102804
C        -0.74567381808012   -2.27742623426352    2.55159184058255
C        -1.91304025727946   -2.26735565534580    1.81576221102048
C        -0.23739188418613   -3.00867057553029   -1.84554770495031
C         0.74985818712906   -2.28216343474813   -2.60670378449720
C         1.97877210704418   -2.28185177727677   -1.85306846665450
C         1.74452771356255   -3.00498002304500   -0.62658214939031
C         0.38036868720516   -3.45342911087994   -0.62630440756380
C         2.79078064618380   -1.15753325229414   -1.84934356165730
C         2.40898485856557    0.01201101923165   -2.60598939011652
C         2.79021223014513    1.17505014079036   -1.84900031307997
C         3.40623501049098    0.72520691237009   -0.62653955566083
C         3.40225063634886   -0.71141664839398   -0.62427283318105
C         1.96798463633958    2.29725369076604   -1.83986912617002
C         0.74196344056676    2.29769216460758   -2.59137959045053
C        -0.25232129253380    3.01744937872490   -1.82806567516603
C         0.36111634226673    3.45540985048183   -0.60486816034176
C         1.73452845319856    3.01101723885170   -0.60952970848933
C        -1.57455227937618    2.59158149165401   -1.83208528411041
C        -1.95168685189776    1.42605833672713   -2.59040970029625
C        -2.94706636062083    0.70711963776727   -1.83293071967925
C        -3.18753531939758    1.42795612284365   -0.61139820322030
C        -2.33852020063640    2.59102265836441   -0.60836672332551
C        -2.93687015684276   -0.68372992684758   -1.82583647019185
C        -1.94446400211452   -1.40567227296941   -2.58428315517304
C        -1.55906454430522   -2.57157234735219   -1.83160785003054
C        -2.30017462190102   -2.56817157720674   -0.60039378227634
C        -3.16127043516088   -1.39436432384428   -0.59800572802442
C        -0.99272868518762   -0.71035173039514   -3.31816976885134
C        -0.99604531386081    0.73057628636368   -3.31835264619881
C         0.37587577266461    1.17606018777812   -3.32266731515681
C         1.22380450764676    0.01240397985203   -3.32916990632586
C         0.37779465008245   -1.15611032235313   -3.32734534245522
Cl       -2.10356048108895    0.31015179817449    5.20009134185072
Cl       -0.36995363280413   -2.10969707905867    5.20623064645162
Cl        3.08520587990434   -2.25321207047419    4.06357042835870
