62
 energy: -137.538687502064 gnorm: 0.000131847429 xtb: 6.4.1 (a3dbbd7)
C        -1.30861844566464    0.00476035158030    3.53114822811775
C        -0.37767228234289   -1.16855638895509    3.30478135916250
C         0.96398898350350   -0.71195308319710    3.27267188731391
C         0.96505322438560    0.72733806569347    3.27937576274638
C        -0.38479215198811    1.18247492812043    3.31482012041197
C         2.33337642816647   -2.59830144016086    0.58237394825398
C         3.38920596449285   -1.51635071470925    0.62979073440962
C         2.93953202792694   -0.69278514561202    1.81905791930112
C         1.94003722358598   -1.39799069401206    2.53544273474198
C         1.56588893916951   -2.56622051700234    1.78253091230789
C         3.18133600899835    1.41555540610293    0.58397353710463
C         2.32747179552616    2.57355240833689    0.58086803648490
C         1.56802311971105    2.57372959681013    1.80555748377728
C         1.93753047362445    1.41459066871686    2.55718717952200
C         2.93260308022782    0.68874025787048    1.80491359649974
C        -0.36706357297774    3.45300612794589    0.58894433555855
C        -1.74047815223116    3.00826012667453    0.59128873922335
C        -1.98590887599586    2.30465211688296    1.81556477814136
C        -0.74658348681301    2.28230538758299    2.56863487047996
C         0.24346311125484    3.00076935767801    1.80648791654990
C        -3.40232490652313    0.72468336261930    0.57556900240903
C        -3.40413420016442   -0.71230885206321    0.57653324987442
C        -2.78125270255379   -1.14247137166269    1.81214806845665
C        -2.43480160220242    0.00653919273364    2.56075875076100
C        -2.78277726177829    1.15977891087476    1.80781068016134
C        -1.74158607335752   -2.99923584754909    0.59093681737931
C        -0.37075599323836   -3.44360276192588    0.58900971354294
C         0.24199978732794   -2.99813523292698    1.80191504635778
C        -0.74660237965196   -2.27698696765505    2.56712707112260
C        -1.97988156688278   -2.28848791085275    1.81897120025549
C        -0.24726177100144   -3.00668660009981   -1.81758639308134
C         0.74785411137611   -2.28709122437888   -2.57652017678490
C         1.97533718887449   -2.29699461327578   -1.83667602024444
C         1.73519559161740   -3.00059127648140   -0.59136656694697
C         0.36300140051924   -3.44140903830353   -0.59354275927694
C         2.77921755451290   -1.15721555523687   -1.81486797603657
C         2.39735522195639    0.00547468180828   -2.58552331827233
C         2.77694700167248    1.16799201020686   -1.83092405618586
C         3.38657862156560    0.70266019243697   -0.60145944793999
C         3.40506663724242   -0.71154899558493   -0.62003071056444
C         1.96490272078446    2.28822640684368   -1.82814227667042
C         0.73946698834478    2.29263525179328   -2.58596459713432
C        -0.24888284531216    3.01193874403452   -1.82269722468613
C         0.36581833967764    3.45316170862726   -0.59390825862647
C         1.73186427463466    3.01148360425604   -0.59699680271840
C        -1.56969922719862    2.58321207503608   -1.82126125083727
C        -1.95082310779414    1.41839445385922   -2.58380954784766
C        -2.94624915393648    0.69912391614599   -1.82892780133984
C        -3.17763489318903    1.41980909786013   -0.60327213360241
C        -2.32838186364857    2.58422807165613   -0.59844772538223
C        -2.94579738113187   -0.68963287030902   -1.82671784114968
C        -1.95180832728588   -1.41303476685298   -2.57870767458676
C        -1.57094170910236   -2.57759270929421   -1.81634340000313
C        -2.32889205275468   -2.57773208428465   -0.59704716325388
C        -3.17835438151923   -1.40660720739686   -0.59876416311040
C        -0.99512495599070   -0.71974727885683   -3.30841700406063
C        -0.99748550935740    0.72369023578037   -3.31284417284183
C         0.37310073044848    1.17038894878100   -3.31739683987664
C         1.21821822507186    0.00380078639329   -3.31557454358352
C         0.37363205352363   -1.16401412003954   -3.31106569360083
Cl       -1.94499319993473   -0.02596639778116    5.25066081692650
Cl        5.04759621954885   -2.22778769667673    0.95414725756214
