64
 energy: -146.700558634331 gnorm: 0.000151410397 xtb: 6.4.1 (a3dbbd7)
C        -1.31575781310201    0.00213893215161    3.58231153460802
C        -0.39254363114689   -1.16349512123043    3.28599068918145
C         0.96038218191684   -0.70979734571224    3.25852872800996
C         0.96006119384544    0.72151211794735    3.26708896535266
C        -0.39344311363015    1.17019356822373    3.29056530782028
C         2.32495511046561   -2.57291268259668    0.57131308975168
C         3.43165479981850   -1.53878080744985    0.64822681120718
C         2.93459417172005   -0.68265834544091    1.79662876853061
C         1.93223539654068   -1.39097143463448    2.52503137756016
C         1.56234578387615   -2.55339636203848    1.77625454419402
C         3.16893470106917    1.41841122303173    0.56023356996260
C         2.31780463617546    2.57585093261052    0.56868537103622
C         1.56094220298843    2.56854317020772    1.79200969614933
C         1.93369901116347    1.40694068046503    2.54243646828022
C         2.93114102424858    0.68540798123502    1.80037282595284
C        -0.37910985884393    3.44081762976297    0.57695245380919
C        -1.74642068023599    2.99556303689339    0.57641836105171
C        -1.98796474020637    2.27597966199080    1.79674257649884
C        -0.74789476288516    2.27648027262575    2.56498955199546
C         0.23639059205171    2.99151482334357    1.80073058787829
C        -3.37704525889895    0.72038504922817    0.57755873804322
C        -3.37641957207582   -0.71820284409289    0.57772246141261
C        -2.79234027394285   -1.16511849315764    1.80016736464363
C        -2.64437472133681    0.00137779776585    2.75716523875263
C        -2.79178007296246    1.16705468339989    1.79944380676128
C        -1.74438106614381   -2.99218581726640    0.57774624320808
C        -0.37418951492105   -3.43034063338018    0.58074956193522
C         0.23647726072062   -2.98299808213221    1.79663421271535
C        -0.74729257783040   -2.27139572727216    2.56603444718920
C        -1.98925574558925   -2.27506726773665    1.79837610473555
C        -0.24507695051236   -2.98732905344972   -1.82510083334548
C         0.74398036746814   -2.26734996164319   -2.58087080466466
C         1.97046693954087   -2.26313425737576   -1.83184026432332
C         1.73513993514333   -2.99338088905402   -0.59113759384566
C         0.36602975131012   -3.42891442213086   -0.59632094342749
C         2.77681179735500   -1.15604665419177   -1.82947168309022
C         2.38333582621794    0.00148903852427   -2.56454967847037
C         2.76125708331443    1.16513771942023   -1.80782455302932
C         3.39081894979032    0.73058475794733   -0.60363728031377
C         3.68235162269399   -0.75512829769239   -0.68185455680833
C         1.95125118480235    2.29730746520327   -1.82394355429475
C         0.72716864748240    2.29936237073287   -2.59036401390867
C        -0.26387062386454    3.01860706536443   -1.83506831481919
C         0.34937165003211    3.45847626546234   -0.60426786103189
C         1.72060488221257    3.01665941058664   -0.60888271482594
C        -1.58487211247434    2.58975536296463   -1.83872273920004
C        -1.96160234530658    1.42291702500369   -2.59990464498814
C        -2.94772746942287    0.69748519727376   -1.84013818192351
C        -3.17405002191491    1.41663159619746   -0.61073728412376
C        -2.33932971004110    2.58081432475836   -0.61280298026555
C        -2.94314331133757   -0.68975092808979   -1.84050475972358
C        -1.95327872971129   -1.40814345645778   -2.59814885602169
C        -1.56941012911853   -2.57221869330440   -1.83526139884072
C        -2.33148824162837   -2.57283194345230   -0.61266397567787
C        -3.16891947032105   -1.41276964282754   -0.61084922533461
C        -1.00033790418045   -0.71196776280040   -3.33041828454851
C        -1.00411029467828    0.73123075785564   -3.33003603956921
C         0.36565738125702    1.17802356009915   -3.32272571896717
C         1.21076149192399    0.00945284413208   -3.31489610832862
C         0.37062723365947   -1.15079900491756   -3.32365547244245
Cl       -1.61826423235671   -0.00271587356413    5.36751171648817
Cl       -4.10930697496100    0.00209146538701    3.82226219389247
Cl        4.91793617117503   -2.39374249522412    1.23000358599268
Cl        5.38767630674654   -0.93046220209087   -1.26626364131312
