63
 energy: -142.094328371555 gnorm: 0.000103424217 xtb: 6.4.1 (a3dbbd7)
C        -1.32969929878380    0.01415637168006    3.59606031474254
C        -0.39329621648157   -1.26907828877154    3.59168414312255
C         0.98064059421678   -0.71921911746659    3.28682389073690
C         0.96282031958948    0.69900281370485    3.25530728948501
C        -0.38236502735335    1.15536442491120    3.29372641346771
C         2.49400262654923   -2.75595193068019    0.61665534754015
C         3.17905147871271   -1.40908807282947    0.57225274803059
C         2.90332560110699   -0.69090020385410    1.77150916998411
C         1.91513590517046   -1.40246779023803    2.53413918445492
C         1.57516456513246   -2.60010292578023    1.80846662647851
C         3.17692600257457    1.42925338999835    0.57590533552556
C         2.33224345443974    2.59796884464972    0.57813454112800
C         1.56931232484264    2.58139910422847    1.80014354744878
C         1.93705618997626    1.40995857058275    2.53976222205534
C         2.92777710789264    0.70355083221100    1.78905088992445
C        -0.37206385058174    3.44978591579490    0.58071807343386
C        -1.74446659096071    3.01219740151299    0.58217786702045
C        -1.98118219382482    2.29404882190748    1.80387965152743
C        -0.73932544718753    2.26336131475137    2.55845669287820
C         0.24230432911738    2.98901766750712    1.80079713558279
C        -3.39547512292281    0.72890892898709    0.57351604062728
C        -3.38246185770603   -0.70221142605486    0.57589294884243
C        -2.74930028613977   -1.12366865448457    1.81677304428591
C        -2.40237758720652   -0.00617191490312    2.55907936098612
C        -2.77439028339571    1.16153140540063    1.80262171279752
C        -1.70066508186015   -2.99544572082275    0.56661781266239
C        -0.35359046067668   -3.45337075144407    0.56035885837541
C         0.26461127459733   -2.98776543293682    1.79155228986731
C        -0.73705983178860   -2.27735107601508    2.54906385564349
C        -1.90604788424081   -2.26564138274663    1.80948879207186
C        -0.24689350242654   -3.00187692001240   -1.84937068568700
C         0.73639215213462   -2.27788632981308   -2.60216872163363
C         1.96250821542221   -2.28158838938053   -1.82831654440354
C         1.73830807795520   -3.01825365896718   -0.63738896416264
C         0.38415224564367   -3.43993403652218   -0.62479344777582
C         2.78982187501475   -1.15805083006919   -1.84455684346730
C         2.40380815497530    0.00478152459598   -2.58718698928980
C         2.77814682486501    1.17111496891788   -1.82669092994485
C         3.38847957134178    0.72635467023366   -0.60220429506827
C         3.38807456528984   -0.71522077988578   -0.59875878656249
C         1.96354951598917    2.29754186110949   -1.82647429501394
C         0.73876186148399    2.30054558675669   -2.58581688970987
C        -0.25371472217889    3.01853847704725   -1.82956985364644
C         0.35991931418407    3.45876490565267   -0.59810897655174
C         1.73260299133767    3.01905771853689   -0.60145270129261
C        -1.57422697267948    2.59325284926203   -1.83035874164002
C        -1.95310405512151    1.42679561111510   -2.59156576721958
C        -2.94670864343261    0.70752839298152   -1.83278412636848
C        -3.18177379547179    1.42942908962079   -0.60901108368058
C        -2.33617798913644    2.59202344520695   -0.60693271298708
C        -2.94036528636854   -0.68237324689980   -1.82849491821191
C        -1.95204126080891   -1.40413088258256   -2.59187166848372
C        -1.56804395002837   -2.57105531689967   -1.83652528652093
C        -2.31109559072611   -2.57076839038653   -0.60688079536251
C        -3.15922019282031   -1.39779425758005   -0.59926519826688
C        -0.99987142347159   -0.70951026490127   -3.32403977467928
C        -0.99883236575719    0.73262050282466   -3.31953226124442
C         0.37533398844801    1.17459736389795   -3.31708800067917
C         1.21885889958400    0.01314795850426   -3.32275641967935
C         0.37187632542090   -1.15401532661564   -3.32636763410916
Cl       -2.10246647928095    0.29940637983009    5.21096887507304
Cl       -0.35663596385813   -2.10636553566154    5.20006392249450
Cl        3.71291003508464   -4.09107786065242    0.92413132602932
