156
 energy: -516.868440787714 gnorm: 0.707223291687 xtb: 6.4.1 (a3dbbd7)
C        -1.26161239197699    0.03347438277310    3.44338454508420
C        -0.38013628173675   -1.19688532136833    3.45302793025629
C         1.06066893184582   -0.71886796466822    3.43555009857669
C         0.99202917811696    0.75838221567898    3.31237389601233
C        -0.33814066487239    1.18010531218150    3.24947270806132
C         2.42666792655436   -2.66313660143187    0.61648863272833
C         3.19604292860097   -1.38662335765569    0.58287452721915
C         2.96304041544203   -0.68876985948837    1.80625112284184
C         1.96043912436878   -1.42944460422838    2.51353063778611
C         1.58578670414900   -2.49827139937457    1.81970402568891
C         3.30083207569768    1.45701878852276    0.64553953172214
C         2.39888339059530    2.67599984275894    0.62102849526254
C         1.58069477627577    2.53214152656087    1.83583846293591
C         1.94415632376241    1.42442503078514    2.55805501728373
C         2.92602962596120    0.66437718906580    1.85130309832730
C        -0.40645289542309    3.40295527166290    0.58331225538774
C        -1.68989405351737    3.01515496749035    0.58489188464790
C        -2.04648807848867    2.38430854040333    1.89192584265363
C        -0.74066833931484    2.26051438014657    2.57961085685121
C         0.24302123983449    3.11939888648487    1.88672688365074
C        -3.40881281724068    0.72619593552233    0.62417735476056
C        -3.41539446749302   -0.72396724614459    0.58420817646141
C        -2.77508021921090   -1.18788188797437    1.78503039914217
C        -2.53499031119122   -0.00225409514551    2.64916767577911
C        -2.79695512010008    1.13558093063018    1.75180212569331
C        -1.78689058510794   -3.14989940194713    0.64216378236073
C        -0.34779355329799   -3.45754070237794    0.56422672710184
C         0.27040345250080   -3.12731217065740    1.85764198517831
C        -0.79245330498174   -2.39021938976665    2.64419391370900
C        -1.97301603527239   -2.23542952809089    1.78106807991433
C        -0.26586059034391   -2.99713939762631   -1.78865620022265
C         0.76477016759659   -2.38960042337015   -2.68041110730858
C         2.05808796391740   -2.38813826755017   -1.87883050783289
C         1.69363746435962   -3.01455757025011   -0.59057278754831
C         0.37974817813541   -3.43846813975172   -0.58648603037815
C         2.79258041282304   -1.11570566097247   -1.80667956760467
C         2.44387320458020    0.01042439785366   -2.56782848698422
C         2.77242835352176    1.16138036657735   -1.86074743316710
C         3.53350979940377    0.72892888259677   -0.65351672494144
C         3.36659174696130   -0.74464877054116   -0.59851119425718
C         1.97664312023092    2.30360427615079   -1.80565900508932
C         0.73942149438107    2.30064414306661   -2.56182793143663
C        -0.19723963682998    2.97640200100321   -1.84105642821522
C         0.39050428447416    3.58317552228177   -0.62914826047337
C         1.73491452905512    2.96698945619736   -0.63775535479129
C        -1.63197580572488    2.70594335372871   -1.85851589566031
C        -2.04075256076494    1.49702497969877   -2.64718952336303
C        -3.06884158496477    0.75832211074050   -1.84532440000513
C        -3.14630601108678    1.46819522860223   -0.54471184876472
C        -2.34280347068167    2.55374171982863   -0.55874258077183
C        -3.06384744035136   -0.73716183601290   -1.84254421672988
C        -2.00021225593073   -1.47377408479290   -2.57492977771664
C        -1.51651114624244   -2.57646059682532   -1.77015146777726
C        -2.44302495478850   -2.68401210443686   -0.63038736816902
C        -3.16461735596203   -1.39541781355688   -0.53422452923479
C        -0.95959624298789   -0.71648875827806   -3.36011552764218
C        -0.96940643996103    0.76078558270072   -3.39094565873995
C         0.45345510416771    1.17953771657266   -3.32213993934401
C         1.22790132293771    0.00422999033829   -3.30341648858560
C         0.43779660201914   -1.10990478497648   -3.29164799285914
C        -1.72166650306388    0.19072276567564    4.89899806613187
F        -0.77635452245930    0.60044746263336    5.77865297641759
F        -2.49671045747797   -0.61609218498372    5.48920586212298
F        -2.27631447233572    1.33859439792865    5.21235367433369
C        -0.55279522832889   -1.74212375934934    4.91301498502087
F        -0.35288008881091   -1.13366000206409    6.07232064086090
F        -1.61811858103249   -2.20796078315985    5.45467050270276
F         0.22683406936781   -2.63857899952761    5.47729666305766
C         1.62239979610026   -0.98569131090681    4.83184095911166
F         1.16302517684089   -0.11511530829986    5.72160851598628
F         1.90671067248153   -2.28828998951105    4.96429836481082
F         2.85725282543673   -0.55735607180889    4.95698935965834
C         3.43435626141743   -3.77040951511708    0.89150168204648
F         4.07791126675397   -3.51639101201591    2.01636403463467
F         4.32266142856309   -3.85961261159684   -0.04580984280916
F         2.88480205435248   -4.94006427682817    0.93966643757411
C         4.67763784307173    1.97511252108586    1.01351373656887
F         4.85959656358369    2.50496397647605    2.32298249008935
F         5.29918206765941    2.86357770043653    0.34376652080370
F         5.56030863788365    1.12612688357122    1.40747781512400
C         3.33129677607527    3.87208929409886    0.84297354078113
F         3.81135178737346    3.94515393250872    2.04029317973622
F         4.05988722444791    4.13434868670735   -0.24351643742562
F         2.78554307501428    5.02899649673899    0.94919264067587
C        -2.93086631838948    3.34481353194225    2.65106722847690
F        -2.48484106829203    4.53810063797183    2.75097079862153
F        -4.07844999727252    3.51953276595769    2.01869591008050
F        -3.10789913423214    2.95799395979164    3.88024854906920
C         0.39279663807594    4.40903533842009    2.68362609992523
F        -0.67052458003532    5.11535880267445    2.78534756227139
F         1.17772210201955    5.27372795961424    2.14114613796629
F         0.83056313370404    4.14423212106715    3.89718600607308
C        -3.68776773261174   -0.02675289524004    3.65821832593401
F        -4.86179935719736   -0.01104251694131    3.04320880495301
F        -3.82214785338756   -1.20570752423570    4.21083705998241
F        -3.90557571879185    1.04974249392128    4.32451509841416
C        -2.52229462886974   -4.46150089895101    0.92819356438874
F        -2.21002946268086   -5.16329160059528    1.91573807857199
F        -2.10590738101947   -5.45966319452706    0.15477345533480
F        -3.73615536337478   -4.27300157582859    1.42678666774937
C         0.50504075945209   -4.45018799607943    2.59049137724459
F        -0.43926821248126   -5.29721962768048    2.64162403791248
F         1.25199240099524   -5.29780242269420    1.94673929746187
F         1.21376478789083   -4.29802357359715    3.70135096662004
C        -1.25896153065835   -3.39422457017631    3.72936129503446
F        -1.83314177276036   -4.59282424408028    3.58420608650652
F        -0.42704539053334   -3.99455220134263    4.50541222547423
F        -2.50151580683647   -3.10372729706528    4.18491395616908
C         0.99300099029221   -3.37191864795732   -3.81305839168355
F         1.07561527101064   -4.62979226512706   -3.45249518753017
F        -0.05189947702458   -3.61363225769470   -4.53320761352958
F         1.81216553139071   -2.88819325032736   -4.73084626636321
C         2.98920737522482   -3.34743943114540   -2.59724214869243
F         2.64877937553557   -4.61134739211847   -2.48663365572734
F         3.40807063343050   -2.88528286883039   -3.75930390299411
F         4.15666801554334   -3.47787106603674   -2.03160477532267
C         4.99007752264312    0.97101036464672   -1.02395896550877
F         5.31631909148139    0.34982069258223   -2.14724925341506
F         5.19846111331790    2.20317138349209   -1.48203969412603
F         5.85715441741303    0.32872197910152   -0.28406994335373
C         0.55012728671310    5.06829210214145   -0.89668232899392
F         1.23404608928524    5.24198746396404   -2.01458846038570
F        -0.58443262116638    5.69050105500198   -0.95099226126646
F         1.14821444037685    5.70406917645444    0.04620137848149
C        -2.26302644603520    3.90628105354488   -2.56381750161305
F        -3.56745786562610    3.99221647492322   -2.34328148049371
F        -1.56559927213531    4.20519589504993   -3.66938987069036
F        -2.10240589029954    5.03361961042548   -1.96649705928780
C        -2.87651499415731    2.11219237413980   -3.82984419199466
F        -3.93630436604666    2.90454949193613   -3.76977326539220
F        -2.42960896266872    2.98852512963080   -4.68127824518273
F        -3.58350149575173    1.52822112182399   -4.77783216595681
C        -4.42198723966815    1.13817994358082   -2.47023569428600
F        -4.84397365572792    2.40984168005847   -2.27652841728933
F        -4.78070833720262    0.92640207895085   -3.65527526222263
F        -5.50775246756608    0.86092339459401   -1.80511634901005
C        -4.38986892649274   -1.06179529593040   -2.53415214585090
F        -4.87118437121282   -2.29894913020979   -2.65989209992732
F        -4.76494327206931   -0.83549823732392   -3.71614277025406
F        -5.48550005998327   -0.94696841826504   -1.79585058654529
C        -2.57178489243482   -2.01130518509573   -3.88811321301533
F        -3.82537558714057   -3.23103579352663   -3.58130930280585
F        -3.57595500425262   -1.73232094844464   -4.68561528698196
F        -2.24402257528349   -3.26734525894883   -4.30902949561444
C        -3.44777422841740   -3.79166430871211   -0.91081139005425
F        -4.20282232273474   -3.78134541336648   -1.90370484527196
F        -2.88676040521387   -4.88607626076420   -1.41744777782413
F        -4.53654470779095   -3.68853992655811   -0.14489500723480
C        -1.56978386811952   -1.25185701169749   -4.62658088399978
F        -0.27160200547016   -0.64029848263053   -6.03071537411342
F        -2.30366858587729   -0.85180182753585   -5.63579663872696
F        -1.01774643346311   -2.19853956164840   -5.37451123008301
C        -1.37823163912149    1.16835248717367   -4.73772660203202
F        -0.27903111087199    0.62943473943164   -5.95129270888567
F        -2.21819395233923    0.86710042702262   -5.57713807872487
F        -0.82977764876037    2.27874400790335   -5.28499985151172
