106
 energy: -294.572644855280 gnorm: 1.404531424603 xtb: 6.4.1 (a3dbbd7)
C        49.05636559071628   28.26985903739847   29.98354365599014
C        48.31256826415849   27.28698438532625   30.54644378675494
C        46.21536255648031   26.66391154072688   31.55919156398826
C        47.24554327941642   27.59259507192239   31.42487846324223
C        47.44131382135808   31.34437225807963   31.38944410249264
C        47.80238169479386   29.98904194160791   31.21092241833522
C        47.00332252730827   28.94770617946481   31.80554473872347
C        45.19691572044333   30.71459259305478   26.36451427809937
C        44.09280723606494   28.73627200406962   27.03709219213670
C        43.87690559288872   29.98541507796099   26.19172958568236
C        42.58325828108141   30.67018051140870   26.84338435337231
C        42.68401774758214   32.20498534906297   26.98815902729204
C        44.06042496099869   32.59510024596327   27.41775846761794
C        45.23303281219861   31.98911311414171   26.97938480463024
C        46.46008498855211   32.56805169941922   27.41303388618466
C        44.39504860399762   26.96417971263947   29.21174953185398
C        43.39846768073583   27.97222588939550   29.29409223683396
C        43.22883477043847   28.77774422711286   28.15344329079976
C        42.50676128952870   29.96906209739951   28.17267908663525
C        42.06621661198530   30.50392075196902   29.35753661608083
C        41.85364557435892   31.93503194535478   29.39634567785419
C        41.85486909163856   32.81935664435292   28.16457980417820
C        42.70407647848392   34.02800759977977   28.71836824217883
C        44.08615494638767   33.56661326322082   28.38461031092799
C        45.28994892478528   33.98237119864901   28.99374384571844
C        46.49309898141887   33.55759232981806   28.43016877474889
C        47.85099265021449   34.01675708439900   28.97653287049722
C        44.45081069980121   25.84516194923315   30.25284479768696
C        43.82644607065330   26.34333592230528   31.64457149988964
C        42.78065774456601   27.54816202150430   31.72117721312922
C        42.76919478825744   28.44764365693080   30.49818556211503
C        42.23471026479390   29.73150103418149   30.55690535992863
C        41.82952587021724   30.40096893719180   31.87843828083689
C        42.04187486412160   31.99485086989677   31.86325212622993
C        41.99430988157147   32.64664936396618   30.51843376825765
C        42.46003633046508   34.07182570436369   30.25858178942737
C        43.82953611993188   34.39376078415384   31.09314535260565
C        45.19139243703647   34.76831518156855   30.28355457700327
C        46.34945269009246   34.19108906545122   31.21935917089464
C        47.74161864791085   33.80215464787773   30.53631968368363
C        45.05277875929978   27.02966245485221   32.16630027816446
C        44.81470211453887   28.29419651923728   32.67284290183230
C        43.32166818159852   28.43037212694503   32.93336982086734
C        42.87139647050113   29.93743907832294   32.97892828468823
C        43.99432919680063   30.92325776186059   32.68026724408460
C        43.47246127041707   32.10996091712766   32.25269262437296
C        44.29183438614446   33.15143723326032   31.80655714903059
C        45.65296614768368   32.96876536843142   31.79103352432125
C        46.20162725056285   31.69984795704902   32.05122297325391
C        45.78205586282870   29.28340246459287   32.46631119917759
C        45.36254315357025   30.66701620744830   32.53346774955061
C        46.36912315579490   30.00961089476561   26.19172958568236
C        46.45429713552302   28.48580919198972   26.28993338547406
C        45.25289553953567   28.02885554470045   27.12685923936898
C        47.61492295206493   31.96768264249669   26.91357813466673
C        47.56341485105898   30.74737947122621   26.30646942049053
C        48.90781621895744   30.16873826212440   26.12558544561647
C        48.89120092244718   28.86630355062248   26.85452086675076
C        47.77823606523856   28.09800222813125   26.94057574285688
C        47.78201984102891   26.95784398263708   27.81226101729663
C        46.65192257611749   26.46249448769231   28.37853584908521
C        45.37245308375369   27.07506760801921   28.19596452369926
C        49.07971674001472   33.06156360782209   28.56076970436877
C        49.00138879378024   32.44868251908503   27.15048214653536
C        49.90030768772261   31.13815094762878   26.90817861302869
C        50.25016937318672   30.26962036264772   28.21385043912524
C        50.09955575417765   28.75611734602543   27.73160566282853
C        49.92075731836788   27.73075740600374   28.87596677998888
C        49.05034686792825   26.47615830768774   28.48078929010543
C        48.42605284042463   25.95484208906067   29.83269452022762
C        46.97753962142866   25.46382064525270   29.45169077464401
C        45.97336123623879   25.49410720186452   30.63857312470386
C        48.04555046181707   32.31304743889328   30.58289055781166
C        48.89937475820559   31.94130738318531   29.54516999300244
C        49.29592828571103   30.62680722777524   29.35314950474993
C        48.79653653935351   29.63950550046629   30.23124671113484
Cl       49.49512747170007   26.88063854189519   31.84121665339407
Cl       46.91808803173941   25.72598178397647   32.92537774376904
Cl       45.19048583291394   31.37688387909202   24.69079718462584
Cl       43.15174561610905   27.58800522265507   26.01930713322403
Cl       46.43495353280115   33.80102050409606   26.10186786442173
Cl       43.34647165867188   25.96408560908485   28.14390208312049
Cl       42.04874105765107   26.85837608664131   28.87269377950328
Cl       41.92493609425598   27.78064178938198   27.41477220640518
Cl       40.93645282855694   29.17339275328050   27.79712398784178
Cl       40.33392310576950   30.07788622776279   29.11742457451077
Cl       42.26359152787565   35.57894657775651   27.91801750976206
Cl       46.46708245541830   34.88927365823739   27.21940538749513
Cl       43.30935197869555   24.95489320615464   32.66674590968017
Cl       41.18386095591026   27.77319896277906   29.97680183150395
Cl       40.57390982535512   29.06205913829938   30.37363111624520
Cl       40.94357694306406   32.79169596577356   33.04595224450919
Cl       45.34636546724760   36.54544070304230   30.04312113333566
Cl       46.66783150252257   35.37602356352126   32.53638808746371
Cl       45.26706110210124   27.92127450520804   34.37469498642248
Cl       42.88894240535162   27.62939069832055   34.48616637984414
Cl       45.85740547951203   33.52425479060394   33.49092648020289
Cl       46.45993425384057   29.22477669992361   34.13275768998253
Cl       46.32450978601254   30.04464476426205   24.39262362014704
Cl       46.35255135591181   27.76578543988609   24.64335706087264
Cl       47.49439270806483   32.84655667283363   25.34735564118740
Cl       49.38117106016688   29.99930536794382   24.39722561945955
Cl       46.38916294399695   25.21240051686065   27.11037874532471
Cl       47.06431169529707   23.80194517219946   28.76565832697070
Cl       50.70054328328737   30.89024327091039   30.44752519881523
Cl       50.16399881073235   29.81022889042383   31.38921927578257