156
 energy: -517.418687983631 gnorm: 0.636194934552 xtb: 6.4.1 (a3dbbd7)
C        -1.27541321245699    0.03697678796025    3.41822676558419
C        -0.39165043487963   -1.21753406137904    3.43806648521413
C         1.05096921985654   -0.74945491099858    3.44540866824630
C         1.02527574680956    0.77678399220430    3.43936509943705
C        -0.38529924223409    1.20777409785644    3.26447389420417
C         2.44338344676512   -2.65986493870057    0.59943361174020
C         3.19090485414241   -1.36606265498070    0.58331898238489
C         2.94674404687344   -0.70758702398917    1.82803113629508
C         1.98401213065997   -1.36514509776227    2.50802311380288
C         1.65582552801545   -2.66495723587672    1.89201524088256
C         3.19500915006290    1.37965416098797    0.59978566042148
C         2.45205163782305    2.66865176646550    0.62373828447995
C         1.61932305711029    2.66938426412039    1.89376912890853
C         1.97800738778866    1.38652934278152    2.51974601564262
C         2.94022320543810    0.71720134591243    1.81930364560232
C        -0.36781963602946    3.45438984815532    0.59547372718744
C        -1.75800213390574    3.01806552866496    0.61541411448049
C        -1.95108628713698    2.33767037792708    1.79154476445511
C        -0.74527034941391    2.30078576672422    2.55115800505267
C         0.20094006238505    3.03399052416806    1.81142970554500
C        -3.41087046682969    0.68893977549140    0.56110277201089
C        -3.41232931535209   -0.67267445733515    0.55820191140788
C        -2.93182363971697   -1.17644061917032    1.87828789589406
C        -2.40895704924781    0.01319904416736    2.53683269314802
C        -2.89496325446544    1.21251371278008    1.86378689100439
C        -1.70611778964052   -2.99292414903962    0.55869675781913
C        -0.42830777339639   -3.41251169867697    0.57898734841682
C         0.22287333476272   -3.12490370747984    1.86824987951662
C        -0.74902501353126   -2.27917093715642    2.53883478680084
C        -2.04526737557105   -2.41448807770328    1.88582800416223
C        -0.24824786854882   -2.99158466187733   -1.80356254351728
C         0.74455615146881   -2.37376563832963   -2.67344014686174
C         1.99989774597729   -2.36688477250041   -1.84190780809004
C         1.70717850540918   -2.99399185787390   -0.59058919261155
C         0.37365207424724   -3.56634928149328   -0.62088307378255
C         2.89833744146773   -1.15969325176395   -1.85158124752923
C         2.50797649737516    0.04094962340462   -2.67607076135162
C         2.80288270419413    1.19572664953684   -1.78241629901789
C         3.40752580975696    0.74359882289632   -0.58712529800205
C         3.40180706615224   -0.68232252982577   -0.54344903117041
C         1.94419992482455    2.25511736369742   -1.83441181680491
C         0.78419261173428    2.27428983430227   -2.57863496208498
C        -0.22236122201357    3.13601164548358   -1.88703355032468
C         0.34178874826005    3.43658289337212   -0.55386835620213
C         1.79083761226492    3.14427051874418   -0.65015532926535
C        -1.66630817462206    2.68594638751358   -1.86777405351903
C        -2.04643443325361    1.45515112726575   -2.67548424109589
C        -2.94725130228257    0.67172816412725   -1.77627015601717
C        -3.18424186567644    1.43403689360883   -0.59833716856822
C        -2.36011686015329    2.54920882285398   -0.55037242249912
C        -2.94872080675361   -0.66896246282572   -1.76632378369008
C        -2.05725703264776   -1.45924980219777   -2.66805052315596
C        -1.64682411997495   -2.67866893445559   -1.86146582679393
C        -2.37643857985046   -2.55720400536410   -0.56765152378491
C        -3.18617599507532   -1.43202689473164   -0.59141391859543
C        -1.00386346509914   -0.71518696350584   -3.44657779835911
C        -0.93897166257607    0.74571863032610   -3.28995158921816
C         0.35431645732792    1.17028571303895   -3.30173297687335
C         1.17354753913133   -0.00854340802478   -3.28400609084510
C         0.40666358476059   -1.09323934733591   -3.27114631210092
C        -1.88308260058021    0.12914316323167    4.84664990747800
F        -1.12468940062752    0.47356694680469    5.81365242681746
F        -2.73215608061426   -0.77749759725160    5.15533336172592
F        -2.61520680400424    1.19656469087224    5.01632644249920
C        -0.61851905158880   -1.84981555953036    4.82949678879042
F        -0.56226155729315   -1.32728511156600    5.98895794415716
F        -1.78575944429072   -2.38740100832466    5.03219867004328
F         0.00439594654787   -2.94548094195103    5.09004428534762
C         1.62597654162517   -1.12858716086665    4.81477253560236
F         1.27689030134025   -0.74049104263627    5.97608970990125
F         1.74435205262312   -2.36186130716829    5.11572069145691
F         2.93680317963243   -0.89063536487656    4.91266140643115
C         1.47407548150324    1.20917126368303    4.84162323960820
F         0.66001235943534    1.04118197186587    5.81699836811910
F         2.73680541946153    0.98004635818256    5.07323950243290
F         1.43024073780464    2.48719639842072    5.03991272834687
C         3.49069506113512   -3.76676589107231    0.75299148724700
F         4.42699557928711   -3.51220157024447    1.61209410874871
F         4.37719369484995   -3.80040466052334   -0.18219400513530
F         3.00701923119638   -4.97367856600327    0.64923584799476
C         2.32710162650879   -3.70037140472394    2.76921398201342
F         3.72717878700654   -3.34982086235569    3.25468267915535
F         2.56919483173824   -4.90497662607973    2.46831266854888
F         2.16002064874559   -3.80305028580649    4.00284438117173
C         3.56902550196144    3.67464452063290    0.85201040953736
F         4.54751896596190    3.36422554010271    1.86239265786193
F         4.60028152550092    3.61941030098985    0.08211706066544
F         3.37006184728190    4.89950520967732    1.13926036579469
C         2.19811639139203    3.79863795558235    2.76526485158336
F         3.36999195736227    3.52767187004240    3.24931167125895
F         1.87093449001434    4.99573805841588    2.29000192594736
F         1.63952656821732    3.97829667551498    3.91101286976252
C        -4.19227506889073   -1.63210993042082    2.63267642323605
F        -5.15924622690148   -0.78933475365799    2.72319497058784
F        -4.97891613614328   -2.43323360811708    1.94474828300171
F        -4.05956021070402   -1.75398802970768    3.91162041005211
C        -4.08270747746338    1.79081981683305    2.63884969079117
F        -5.09702663725874    1.04703419334888    2.77057687188702
F        -4.60482703440876    2.81397456185858    1.98763348314604
F        -3.77516029770042    2.19454336508322    3.82114375189310
C         0.27135981321232   -4.48966343379033    2.63991935608051
F        -0.77751142420613   -5.19652932491771    2.71573113794806
F         0.81923613076134   -5.50032482547588    1.99611100225906
F         0.39226363562151   -4.44907058672179    3.92077837239905
C        -2.87444239578654   -3.47235633316486    2.62531985413460
F        -2.43762173894012   -4.65993558425200    2.72422300042702
F        -3.88050668357148   -3.96130320980506    1.92516650732484
F        -2.97822550950130   -3.33838682713066    3.89451142865924
C         0.99505227688681   -3.30644580285346   -3.87125899534468
F         1.13888617226343   -4.54607107823612   -3.61752776044630
F        -0.02461566566323   -3.56219308382396   -4.60740826279500
F         1.75695242554537   -2.73406093597995   -4.80165097110866
C         3.00685482620775   -3.31552015710689   -2.58591958665016
F         2.63338838646076   -4.88738073195532   -2.68004798756553
F         3.20047679533563   -3.47435960578436   -3.84851543627339
F         3.93661005159167   -3.96681071344643   -1.99598876655145
C         0.48018868057158   -5.09806906761966   -0.81680200713053
F         1.04432946687963   -5.51242792096800   -1.86071907367102
F        -0.66123706970361   -5.69238736697707   -0.87150051928157
F         1.16302587225217   -5.70597783988562    0.07581149871271
C         4.04558751209842   -1.83661108745758   -2.54931941151279
F         5.49461799648668   -0.76538319095216   -2.46805916410153
F         4.34182699648406   -1.91396710562055   -3.79474655141818
F         4.97664018028879   -2.42010591374004   -1.89364556962436
C         3.44951587584087    0.11996011984463   -3.85546838642027
F         4.66851601905256    0.41164762502534   -3.50179308651441
F         3.18268314580182   -0.78839940471973   -4.77995935831875
F         3.28996549465540    1.22142651043593   -4.55640117742232
C        -0.26121013140242    4.44411550306653   -2.69942319308980
F         0.80683018968196    5.04958802648704   -3.00043479662826
F        -0.40256703749954    4.19757640154777   -4.03542332691690
F        -0.71445417864379    5.47412164164265   -1.99108084154966
C         2.51848920727718    4.45517389633594   -0.96313282146792
F         2.28341613110194    5.07770596546719   -2.03879720609851
F         3.75866698114102    4.28007244630333   -1.43920578434966
F         2.04688969707393    5.45620679362044   -0.18823686127864
C        -2.40853151993989    3.84679204812274   -2.51731993829875
F        -3.84844869842635    3.85156403428389   -2.42328086300068
F        -2.31495599082141    4.15306648694713   -3.75037457524627
F        -2.52524228884941    4.94034710905585   -1.84810918997699
C        -2.88548594218722    1.95687740642947   -3.84512692884945
F        -4.05256433532719    2.40172442175221   -3.50377580806169
F        -2.12878008246662    2.55165378875472   -4.75745312379533
F        -3.42845380411155    1.01831407220968   -4.55639420897806
C        -2.99319259806075   -1.96661315602088   -3.74122883861564
F        -4.29837644018433   -2.51549343045357   -3.29696462962182
F        -3.75420741146840   -1.13315872447464   -4.34048726813478
F        -2.70677307368121   -2.86461820597597   -4.58845863167916
C        -2.27337417127945   -3.89270471246279   -2.57614430407979
F        -3.55371629078501   -3.95529412272217   -2.48786975162673
F        -1.70092221941693   -4.20159784571835   -3.70441789547406
F        -2.13435486518177   -5.01874152008041   -1.95291604692141
C        -1.30999901940875   -0.96146579384700   -4.94307597388487
F        -0.42510451119899   -0.32161891958368   -5.70694926456678
F        -2.34325432979785   -0.40151637842937   -5.44095395215073
F        -1.07132969518602   -2.13961601183823   -5.39748592022364
