63
 energy: -142.096255193951 gnorm: 0.000084618580 xtb: 6.4.1 (a3dbbd7)
C        -1.32594821687766    0.00639810256098    3.59330020797658
C        -0.39222777448404   -1.27656317064116    3.59220355803601
C         0.98620609959552   -0.72565947790107    3.29771871177095
C         0.96939442696407    0.69557010360779    3.26917935451910
C        -0.37806925772135    1.14798148154432    3.29670564036086
C         2.33063274941155   -2.58398019648982    0.58024088409796
C         3.16058993491262   -1.41505395883587    0.57691290769196
C         2.91774540283761   -0.69071277824246    1.80081350926010
C         1.92984183808315   -1.40460137137661    2.56059564137311
C         1.57645101802831   -2.59593855010280    1.80408371818476
C         3.17587890814158    1.42116343750042    0.58183781815180
C         2.33488677634542    2.58436868779859    0.58848474669484
C         1.57445316284258    2.57383901448406    1.81181237065413
C         1.94321449001502    1.40616502071929    2.55581081235420
C         2.93544984129841    0.69620325234654    1.80355485766579
C        -0.36753658019163    3.44002716318459    0.58543630163241
C        -1.74303760826296    3.00646335739663    0.58798108010383
C        -1.97876185826576    2.28682633334239    1.80445836083705
C        -0.73380287911682    2.25568332749870    2.56226048058082
C         0.24669176658857    2.98098863557799    1.80835959448297
C        -3.39943962248109    0.72678812425573    0.57823748634821
C        -3.38560254202901   -0.70860810740768    0.57990854592511
C        -2.75311197808956   -1.13171384632949    1.81917885510407
C        -2.39941680713063   -0.01287883636890    2.55631890360863
C        -2.77532224102141    1.15713463764698    1.80538131505752
C        -1.71301314650324   -3.00520711471995    0.57733760241849
C        -0.34955727176785   -3.45391552357193    0.56838673206714
C         0.25492115393223   -3.00085726174346    1.79889751541553
C        -0.74134552455989   -2.29060672975375    2.55489429168319
C        -1.91741823096957   -2.27963982600863    1.81397659691230
C        -0.23782803628528   -3.00504639070034   -1.83860284379724
C         0.74086944677849   -2.29110506464750   -2.59535720565655
C         1.97881612741069   -2.27584263528480   -1.82845824516577
C         1.74507033896447   -3.00604506461498   -0.61119611095833
C         0.37753632794711   -3.45382215236607   -0.61343290812451
C         2.79922638706778   -1.17211190156893   -1.83362168666932
C         2.57990659931730    0.00650862033917   -2.75737649949338
C         2.79626129571853    1.17888159059121   -1.82570266781898
C         3.37864375499573    0.72523609804371   -0.60839045833201
C         3.37599120367294   -0.71920304082220   -0.60907266096974
C         1.96873044459381    2.28236880032064   -1.81484048577935
C         0.73565014217923    2.29998381229907   -2.58187646969291
C        -0.24918768097540    3.00724357282025   -1.82585261108727
C         0.36253445511585    3.44471339987132   -0.59147197048945
C         1.73467349060165    3.00133307318798   -0.59321203079135
C        -1.58068587921437    2.58912499321050   -1.82340231867226
C        -1.96185480073991    1.42125093140429   -2.58318186125948
C        -2.95750833453458    0.70285687952915   -1.82771960732947
C        -3.18728820485212    1.42454498754074   -0.60332829953571
C        -2.33579893061646    2.58851515580449   -0.60409722680710
C        -2.94984545251015   -0.68874597647654   -1.82215355682180
C        -1.95677896280103   -1.41021556853718   -2.57883435874884
C        -1.57034087228722   -2.57807954840070   -1.82379487650536
C        -2.30684291487776   -2.57542516904820   -0.59908268654798
C        -3.16708524609132   -1.40183111142516   -0.59337333737127
C        -1.00593040838721   -0.71313048893077   -3.30478706913597
C        -1.00707788304938    0.72325580539947   -3.30320787231874
C         0.37550690785286    1.15448253781591   -3.29625458023374
C         1.20472521402889    0.00756456100343   -3.32075417323972
C         0.37627221756573   -1.14474707399352   -3.30051471409307
Cl       -2.11094073108462    0.29300388848774    5.20247085313406
Cl       -0.36228250039381   -2.11422836294329    5.20169311420205
Cl        3.82688545633402    0.01324129476111   -4.10298688864707
