63
 energy: -142.101089621495 gnorm: 0.000081847649 xtb: 6.4.1 (a3dbbd7)
C        -1.31373695981446    0.00659376144987    3.58876287997727
C        -0.37748331361943   -1.26848545520383    3.58258793533209
C         1.00191770427048   -0.71736292478678    3.29382711227948
C         0.98132745674292    0.70214598543472    3.26189284999628
C        -0.36886962261172    1.15000700251543    3.28927884006487
C         2.34480056302803   -2.57955903156735    0.57910216360295
C         3.17967685499877   -1.40872499584313    0.57404818724923
C         2.93844993617243   -0.68272994108098    1.79887784633907
C         1.94944607723647   -1.39765752793398    2.55893320177477
C         1.59345791996067   -2.58366461899073    1.80285719909569
C         3.19134872037712    1.42776856725298    0.57458163559833
C         2.34095012166214    2.59063245000107    0.57648865916583
C         1.57973992215650    2.57605320248253    1.80091650354906
C         1.95382366462950    1.41311710338089    2.54729703740817
C         2.95045818032783    0.70381589595980    1.79845216220782
C        -0.36276371949394    3.44438681488581    0.58178815080456
C        -1.73499514674513    3.00862019248593    0.58099859250012
C        -1.97209454828565    2.28456983039822    1.80098849508580
C        -0.72729865715828    2.25771492154436    2.55811808223306
C         0.25235409230840    2.98468669263330    1.80262030381359
C        -3.37993708585751    0.72574251797302    0.56839553478692
C        -3.36977275121644   -0.70772191751203    0.56638212323215
C        -2.75005867034222   -1.13206359011886    1.82001270998613
C        -2.38913264482051   -0.02367941997669    2.55131472275341
C        -2.76114420929241    1.15467086764463    1.79533563465769
C        -1.71240117609049   -3.00187745537426    0.59183720551098
C        -0.35379604673188   -3.42986128369237    0.57021330306410
C         0.26424588368586   -2.98378274300542    1.80227358783949
C        -0.72089206683950   -2.28219952881101    2.54892964035302
C        -1.91064290928570   -2.28096543413170    1.78671044998124
C        -0.24928022286781   -2.99103588614656   -1.83387120166401
C         0.74244986418672   -2.27069977743449   -2.58415857849169
C         1.97204684343435   -2.27543697752430   -1.82602924235678
C         1.74511867755089   -3.00645501257087   -0.60830066893269
C         0.37991322820096   -3.45342143691536   -0.60583907178074
C         2.79232703445927   -1.15585051435270   -1.83128833069032
C         2.41391764321655    0.01275469286348   -2.58736663468995
C         2.79381297118491    1.17524350994730   -1.82935909615079
C         3.40936159033693    0.73017905487142   -0.60611053628884
C         3.40779824308765   -0.71209263305055   -0.60504780944833
C         1.97586140300001    2.30186585135560   -1.82758852113240
C         0.75166131374032    2.30277571317250   -2.58518327603464
C        -0.24348244497818    3.02156481355925   -1.82666903386817
C         0.36890607815463    3.45849714288113   -0.59773558187689
C         1.74366227573416    3.01838224807924   -0.60173859403042
C        -1.56484018239709    2.59622317401481   -1.83064693026560
C        -1.94105470638530    1.42867894775977   -2.58945621101664
C        -2.93071935419447    0.70812987189154   -1.82773204917432
C        -3.17113425901442    1.43125159144900   -0.61074326781135
C        -2.33001811418893    2.59768629668815   -0.60804143938002
C        -2.92005168187311   -0.68457380327989   -1.81137216980857
C        -1.92851470739253   -1.40687188494513   -2.56968065612412
C        -1.56258905341028   -2.57835502744296   -1.84360361153598
C        -2.48210888097183   -2.74713044962029   -0.65255620982245
C        -3.16998886439007   -1.39984278367195   -0.60142198308755
C        -0.98126045218100   -0.70629117817744   -3.31355219499239
C        -0.98489344670824    0.73390231666545   -3.31497022493246
C         0.38775781596808    1.18021516645435   -3.31717908155176
C         1.23400772635169    0.01630576259032   -3.32046760029653
C         0.38429602221107   -1.14910033468907   -3.31878527231186
Cl       -2.08842209025376    0.29571902075599    5.20227467953672
Cl       -0.34234608706496   -2.12038337057677    5.18820934546271
Cl       -3.69814093736635   -4.07758166449674   -0.95829829948549
