63
 energy: -142.112037391831 gnorm: 0.000122051395 xtb: 6.4.1 (a3dbbd7)
C        -1.29963574257328    0.00995376887652    3.54913211807531
C        -0.36978509103321   -1.16461462186656    3.31262716714808
C         0.97930698880895   -0.71165876295227    3.28262370426400
C         0.97811849762146    0.72927714260332    3.27832031990898
C        -0.37523560583590    1.18709035781507    3.30735633227482
C         2.34478104085219   -2.57651121236881    0.59383461400701
C         3.16149553319580   -1.41833607660770    0.57923046784599
C         2.93904213401859   -0.68708997447460    1.80744864376161
C         1.94925943802145   -1.40292967897529    2.56080608651863
C         1.57904474022445   -2.56129839979759    1.79155025199510
C         3.18493733539616    1.41853525846488    0.58045863816921
C         2.33568323516753    2.57642861461279    0.57808021091824
C         1.57337640716662    2.57317145891464    1.80361397923300
C         1.94973338111641    1.41816781818920    2.55948598493798
C         2.94561071794908    0.69812452192170    1.80646814714550
C        -0.36869881477961    3.43123688364014    0.58092315444352
C        -1.73130405700544    3.02133283283197    0.58433414802501
C        -2.09787274841164    2.46843364455791    1.94914275551122
C        -0.73401219290583    2.29195527054746    2.58574541120197
C         0.24524083640079    2.98139506982551    1.80583630340825
C        -3.37724218570862    0.70874195189047    0.57699626441754
C        -3.39256778280105   -0.72559275169635    0.56844018348377
C        -2.76737147462261   -1.15753988515607    1.78821365930308
C        -2.39073107854057    0.03025386532645    2.53413651515867
C        -2.75021209178225    1.13543278514463    1.81562185874407
C        -1.72962004992870   -2.99660530082204    0.57372735686411
C        -0.35931754574945   -3.43512202160206    0.57093796844489
C         0.25176043832921   -2.99148210429149    1.81096466748674
C        -0.72451188723776   -2.26688139507241    2.56061452603124
C        -1.96623819956850   -2.27715677532932    1.79417555326607
C        -0.24212811551892   -2.99700593523120   -1.80733356098412
C         0.75268322796229   -2.27465217405063   -2.56532091561614
C         1.97808616763172   -2.29261997441489   -1.84037143575445
C         1.85314072061179   -3.21823146664015   -0.65109929545856
C         0.36102398470247   -3.46319713416529   -0.60196922312172
C         2.77820208193909   -1.16936958804422   -1.82777843481265
C         2.40193969854765   -0.00302263627881   -2.58073878969237
C         2.78726568854728    1.16110637958388   -1.82656938222176
C         3.40699922982930    0.71238631467697   -0.60288784433528
C         3.41431013388672   -0.71862120173733   -0.60443390857256
C         1.97685961293534    2.28797324277187   -1.82812064793836
C         0.74780775520244    2.29149557719404   -2.58607477847117
C        -0.23878066241424    3.00932215219900   -1.82286176589677
C         0.37145577792488    3.44627787290886   -0.60047078251987
C         1.74282281446878    3.00757122052776   -0.60288415985499
C        -1.56089464847350    2.57545077457391   -1.80906450598634
C        -1.94516372840174    1.41498212806824   -2.57251238360515
C        -2.94209506765094    0.69323218994827   -1.82127334673449
C        -3.17299003859766    1.40509843781646   -0.59576429793553
C        -2.30877610807747    2.58013213903812   -0.58439187783995
C        -2.94871855293985   -0.69958973004223   -1.83547917024512
C        -1.95047303577132   -1.41474039976180   -2.58925577689298
C        -1.57035420157101   -2.58032283903163   -1.82799599757414
C        -2.33270943603950   -2.58296136401510   -0.61198616978881
C        -3.18540920041037   -1.42470983258735   -0.61546415570744
C        -0.99297846208029   -0.71715432336781   -3.31141034057959
C        -0.99406542895216    0.72505636117287   -3.31001001102857
C         0.37823648696773    1.17046070935372   -3.31577236405744
C         1.22130888609228    0.00308089459192   -3.31519686521158
C         0.37915808611523   -1.15790319534786   -3.30993780521479
Cl       -1.96556066093625   -0.00171442167247    5.23553930147478
Cl       -3.13959645002124    3.62799446241563    2.87374765644730
Cl        2.75033801851959   -4.79272850035150   -0.96377355197533
