63
 energy: -142.085717569833 gnorm: 0.000244142083 xtb: 6.4.1 (a3dbbd7)
C        -1.29806459028274   -0.00170469143654    3.52715162781986
C        -0.36914928022762   -1.17790758110495    3.31817948090661
C         0.98803522853209   -0.71758614138793    3.27155849254716
C         0.97493898566460    0.72341463199138    3.26618332760581
C        -0.37354821591734    1.17400945077010    3.29636067166735
C         2.35117822590163   -2.58010105472261    0.58767245725616
C         3.15575254679737   -1.40623046930236    0.58093218314422
C         2.92107659303400   -0.68411841573451    1.80944904320108
C         1.97012370239395   -1.40763839739729    2.58247741179599
C         1.70530831155787   -2.74674788454158    1.94059285875300
C         3.17626401485187    1.43183296118575    0.58156716887942
C         2.33319488938409    2.59924518970397    0.58163629793993
C         1.57438472947589    2.59338390738204    1.80566292435541
C         1.94680370057008    1.42811446067369    2.55431778582756
C         2.93555448350512    0.70948514875675    1.80673140417265
C        -0.36592364802361    3.45734089770900    0.58198532595485
C        -1.73906464423700    3.01458751781990    0.58220928896214
C        -1.97806035284827    2.29752959227867    1.80502250731444
C        -0.73844623705384    2.27991996753437    2.56138371775290
C         0.24647781963562    3.00410894327803    1.80198405020404
C        -3.40858871785056    0.74245871976285    0.57053277064417
C        -3.40098378362072   -0.69449104624294    0.56902661423481
C        -2.77168129670823   -1.13030411184134    1.80633454332749
C        -2.41875829992647   -0.00297091188914    2.54588441304549
C        -2.78081441646690    1.16761251783683    1.79929458331848
C        -1.73979784439540   -2.98992078478448    0.60375134405228
C        -0.34267100084622   -3.41793262640709    0.59478599556314
C         0.25160593598778   -3.00085117863846    1.81221827848220
C        -0.71563072202678   -2.27041060002501    2.54716948849241
C        -1.96694194933375   -2.29103946784962    1.79282591129928
C        -0.25478127202768   -3.21170905315123   -1.93432646257768
C         0.74814404636280   -2.27725746871400   -2.57558455350232
C         1.94384705120859   -2.25780414571543   -1.80597516646010
C         1.72359617432992   -2.98078206313147   -0.57900515263194
C         0.37618481700076   -3.47116948966499   -0.58354850280731
C         2.78210065302353   -1.14200514087128   -1.81832738036800
C         2.41172674650846    0.01693531720025   -2.57780034776138
C         2.79304602085367    1.18438496063904   -1.82571352971985
C         3.40193284727396    0.73762834013476   -0.59967592669833
C         3.39516445275254   -0.70479545912604   -0.59928599822042
C         1.97060713524537    2.30603631012223   -1.82353947105081
C         0.74137633360063    2.30259791248610   -2.57940772071865
C        -0.24882201876419    3.03016565693201   -1.82816365204706
C         0.36320021334749    3.46623999319550   -0.59955906571269
C         1.73703513316286    3.02470095481321   -0.60076179329920
C        -1.57094688250523    2.59925011499071   -1.82743119747127
C        -1.95385927402125    1.43642768726705   -2.58562955250930
C        -2.95544927077526    0.72004964826107   -1.83359133557440
C        -3.18938472913817    1.43983954132685   -0.60893896042255
C        -2.33218677515542    2.60050247490210   -0.60507335050519
C        -2.95032004216495   -0.66757134155244   -1.82849358865231
C        -1.94691830745900   -1.39817624758206   -2.56613417668478
C        -1.58777832180268   -2.55975528023215   -1.80422760880423
C        -2.30969384636876   -2.55174618583582   -0.61211087619721
C        -3.17701690899623   -1.38360052886150   -0.60342529425817
C        -1.00138150258432   -0.70760674993209   -3.30790556606939
C        -0.99654981087244    0.72993508595708   -3.30489197179742
C         0.37596153450870    1.17462326528387   -3.30182149785715
C         1.21965315544712    0.00972562443829   -3.29261312979371
C         0.37900554395834   -1.15837878303359   -3.28848797282654
Cl       -1.94009295080064    0.00533465021503    5.23966150795431
Cl       -0.38828680614872   -4.76913573658886   -2.88382297032756
Cl        2.52110165429641   -4.09907293192667    2.89123138322171
