63
 energy: -142.114383867153 gnorm: 0.000105476106 xtb: 6.4.1 (a3dbbd7)
C        -1.30344887441743    0.00356688024032    3.55077293202009
C        -0.37151658889421   -1.17064609553190    3.30806027101888
C         0.97350790696905   -0.72061075321032    3.28061361893720
C         0.97078510171164    0.72171537439249    3.27685077040026
C        -0.38066359670486    1.18173643207869    3.31129303774274
C         2.32491009360735   -2.57936729578599    0.57215597755801
C         3.17367760611744   -1.41595375379024    0.56599750353123
C         2.94481232885083   -0.70039809408748    1.80768207146129
C         1.94970791883923   -1.41040285434281    2.55088470846693
C         1.57134648434517   -2.57336965050460    1.79823158419722
C         3.18041297794668    1.41823336563479    0.59237768508102
C         2.32901686369182    2.55199064422632    0.57928677582207
C         1.56305087381338    2.56257798483458    1.80726177776448
C         1.93762955465857    1.40997029439452    2.55623849137502
C         2.93265148346021    0.69456138641290    1.78626424562079
C        -0.37438918502280    3.42697182266864    0.58546991647103
C        -1.73249875871520    3.01720114709432    0.58675217836981
C        -2.10316554045847    2.46435641646538    1.95172588748755
C        -0.74055232321146    2.28914205222446    2.59168882159546
C         0.23788180080396    2.97691487924275    1.81139784817529
C        -3.37873228050414    0.70262338740168    0.57843069860388
C        -3.39402954545704   -0.73233717959245    0.57085841494171
C        -2.77249693238723   -1.16281046848516    1.79060951883466
C        -2.39425635169063    0.02473493032224    2.53560939115034
C        -2.75353609997595    1.13026719540946    1.81722221876640
C        -1.73941426097584   -3.01084797413061    0.57932091323847
C        -0.36881254716068   -3.44870618396361    0.58001802926725
C         0.24674753117646   -2.99265864711574    1.80314098518949
C        -0.73540700444124   -2.27457091283388    2.56556872503496
C        -1.97355533902294   -2.28590941150514    1.80060462096783
C        -0.25499108574909   -3.02044727250497   -1.82903051596401
C         0.73875982560410   -2.29615372275480   -2.58274317001065
C         1.96180824849887   -2.29564045942131   -1.82248570359926
C         1.73067196255454   -3.01601898405534   -0.60521955028882
C         0.35924445582479   -3.46188625648075   -0.60096247571294
C         2.77835924415086   -1.16409863259009   -1.80984808707637
C         2.39945714809686    0.00181232703223   -2.56746969475214
C         2.79744183977726    1.16286082577298   -1.84351404073522
C         3.64347617276674    0.75756880099833   -0.65591315139664
C         3.41511525799372   -0.73776776144331   -0.60846530404359
C         1.97621513481617    2.26873053907673   -1.82834982484425
C         0.74816226453950    2.27240667191896   -2.58057875445894
C        -0.23759903377304    2.99289450571139   -1.81878639760968
C         0.37512967377871    3.43469503938748   -0.59751189570047
C         1.74014883773551    3.00644316481452   -0.60106318335785
C        -1.55879736234180    2.56314146565379   -1.80707730782788
C        -1.94514849778261    1.40180019872725   -2.57189294118905
C        -2.93980230399891    0.68283809387853   -1.82087571851920
C        -3.17078338570899    1.39805403236613   -0.59327414969813
C        -2.31044947253634    2.57195556268795   -0.58375602596609
C        -2.94853885662405   -0.71012040552475   -1.83338286774837
C        -1.95564045161381   -1.42774472310806   -2.59216964716876
C        -1.57596013934281   -2.59605056145909   -1.83299222146710
C        -2.33606142385811   -2.59476072428710   -0.60872364409067
C        -3.18405396302058   -1.43326712587270   -0.61282280966681
C        -0.99893333726826   -0.73127975408745   -3.31655597097539
C        -0.99688872820466    0.71103949354097   -3.31257414704065
C         0.37579032862519    1.15305588336084   -3.31432900275157
C         1.21792140321577   -0.00664326377474   -3.30990070847888
C         0.37390345019975   -1.17346251929469   -3.31228001173794
Cl       -1.96675717099315   -0.01681357006208    5.23629946681739
Cl       -3.14937864282963    3.62220296541728    2.87162537551956
Cl        5.41295738919987    1.12931654076283   -0.96878099964243
