72
 energy: -177.475020687140 gnorm: 0.003421193451 xtb: 6.4.1 (a3dbbd7)
C        -1.30441698310082   -0.01632959158417    3.53081818561707
C        -0.36295286145568   -1.19174276434207    3.27917141101842
C         0.98396196127158   -0.72758763309371    3.24811290893277
C         0.96223568843923    0.71662466270346    3.23760403145175
C        -0.37580908068880    1.16535484248925    3.27849635175397
C         2.36030313941175   -2.59086723320986    0.55158124487735
C         3.16290010784224   -1.41489408940528    0.55809251435119
C         2.91648024907209   -0.69828355941734    1.78803328388370
C         1.97145476258985   -1.41362145221386    2.55605139790577
C         1.71924388963392   -2.77878304715358    1.92561859239562
C         3.18117794260072    1.42374861283062    0.56652671576818
C         2.34033352635238    2.59742237803924    0.56451815188476
C         1.57778441771350    2.58979667208150    1.78570115049662
C         1.94827111801502    1.42143161624751    2.53338988763224
C         2.93011114670266    0.70539534588434    1.78882836379340
C        -0.35181995323369    3.45469266959256    0.56211199123965
C        -1.72819340974847    2.99863567516426    0.57121296664692
C        -1.96601938452776    2.31660377388577    1.78893439356838
C        -0.75393521333757    2.26213453141658    2.51705025634046
C         0.25320264983560    2.99868236645412    1.77440854080880
C        -3.41751174197181    0.73382016563115    0.54454921118896
C        -3.37503348964819   -0.68017574650793    0.55071136718853
C        -2.74849674094813   -1.10386477560853    1.79402004018388
C        -2.47145002768089   -0.00788146747658    2.58306318281990
C        -3.01647174133596    1.25699422887296    1.92410491333136
C        -1.72853550495721   -2.96934000255913    0.58193475501206
C        -0.34355264802291   -3.42114114113352    0.58504188180702
C         0.24749999645775   -3.03390707767601    1.79509746160083
C        -0.72108382904077   -2.29337780935093    2.53498984495843
C        -1.96729085796885   -2.28450330664599    1.79006426008033
C        -0.23220447218947   -3.00863495102968   -1.82110216189119
C         0.75605124027017   -2.27934339607719   -2.58347444731353
C         1.98404327446547   -2.28076690964724   -1.83732142581127
C         1.75612929832496   -3.00284401296576   -0.61441239236432
C         0.37501221690926   -3.45912914619799   -0.62121382395609
C         2.80106176214191   -1.15318730902431   -1.84259006736946
C         2.42228176932918    0.00993378649156   -2.60024259726634
C         2.79766290131830    1.17788630748101   -1.84150038164411
C         3.40635257497122    0.72995570058288   -0.61376170059929
C         3.40603448020416   -0.71211229007754   -0.62024046211945
C         1.98056587775305    2.29949759775462   -1.84165673551478
C         0.75158353567978    2.30100945354303   -2.59799717484927
C        -0.23504887851075    3.02648420117027   -1.84713448208512
C         0.37777327336779    3.46680762296453   -0.61824070562970
C         1.74829671521603    3.02507600053365   -0.61673248134441
C        -1.56063660426117    2.59302995645837   -1.83713306518711
C        -1.93689096474309    1.42531479314374   -2.59524694324593
C        -2.93488537183300    0.70645987135344   -1.84318504421907
C        -3.17607300203698    1.42616691314902   -0.62257688550516
C        -2.32670585951816    2.60282854524449   -0.62578617900176
C        -2.94095717803221   -0.68339292242009   -1.84880836586244
C        -1.94312634230889   -1.40918763389360   -2.59673729256894
C        -1.57021798846135   -2.57210938906226   -1.82800725237850
C        -2.32129821527982   -2.56259205125014   -0.62079878199801
C        -3.16875614325108   -1.39291059158006   -0.62456029849886
C        -0.98416554155591   -0.71467459836563   -3.31814205706579
C        -0.98226766468984    0.72811002548469   -3.32108931161174
C         0.38842719014577    1.17321944923412   -3.32662459393182
C         1.23415654212929    0.00854813022756   -3.32033405464474
C         0.38859861070206   -1.15878640956759   -3.31513306641324
C        -1.73956911127917   -0.06866632308588    5.01032638440669
F        -0.68449831599755   -0.16342016259520    5.82765130142507
F        -2.52031657575466   -1.12534909215504    5.25238107935260
F        -2.41435416720511    1.01708502993685    5.38162852591913
C         2.42668774355158   -3.89559788755229    2.70969018920907
F         3.74024384905716   -3.66835611690648    2.82751120680323
F         2.28924807659165   -5.08207673092067    2.11073544567435
F         1.93963766185132   -4.01991972881411    3.94702271343581
C        -4.26879175754691    1.82264070448428    2.62307298126462
F        -5.18801336334046    0.87690759242266    2.84290845912740
F        -4.85030847950487    2.76290287017800    1.86618426953772
F        -3.99561634940419    2.39334468731170    3.79631963342812
