65
 energy: -151.240353570705 gnorm: 0.000081586779 xtb: 6.4.1 (a3dbbd7)
C        -1.29659195383419    0.00198512312977    3.53217400120087
C        -0.37046824707817   -1.16664199912851    3.23371661658995
C         0.90141260961286   -0.73067853330874    3.17742845046149
C         0.90888538171803    0.72724917168321    3.18197447442884
C        -0.38774451699631    1.17902338775883    3.27120341451504
C         2.29994542580540   -2.57015897252272    0.56944289756267
C         3.14246169854606   -1.39779682117319    0.57524995859160
C         2.93420076627216   -0.69758615451352    1.79002092530678
C         2.06995864128166   -1.52901597743079    2.71437908440197
C         1.56159812245851   -2.61272919699940    1.79042265293220
C         3.15823337767081    1.41063527028508    0.56266106091276
C         2.32071999970817    2.58301561138445    0.55917084936476
C         1.56163771718477    2.59512663803250    1.78349656366115
C         1.94009391256532    1.43418361800132    2.53962581998200
C         2.90874316434664    0.68823032137494    1.78415873788476
C        -0.34896218898417    3.44351272018387    0.57161065140141
C        -1.71615720547943    2.98595934929058    0.56814617364023
C        -1.96658770307766    2.29232417150271    1.79388075420797
C        -0.80173818653894    2.49267794403616    2.73485090875146
C         0.25381589577423    3.05145742101679    1.79780585477366
C        -3.32976801045416    0.72005640832322    0.57031112734760
C        -3.32806721637926   -0.71656535175614    0.57064780703113
C        -2.74023883890785   -1.16735828198267    1.79206261190443
C        -2.62477544837224    0.00214805823275    2.74832929923073
C        -2.74246528624530    1.17095021180450    1.79142339401894
C        -1.71398714299510   -2.97875426255245    0.56718559198096
C        -0.34930135179486   -3.43494961225294    0.56813333831269
C         0.26149074206799   -3.03904987335833    1.79681113778021
C        -0.80215927208027   -2.49918076349874    2.74186652325905
C        -1.96328523808190   -2.28899200898345    1.79471722947068
C        -0.23889391604364   -3.00726425830851   -1.85266329397002
C         0.75305741083679   -2.28651549977354   -2.60997412644445
C         1.97493545896622   -2.28586699347556   -1.84901802073395
C         1.73212567522696   -3.00395724345637   -0.62240792012980
C         0.37166418995851   -3.44707068130100   -0.62314317256021
C         2.78856418597454   -1.16016689531988   -1.84281882825801
C         2.41591565695524    0.00476921188238   -2.60616392852085
C         2.79486888017264    1.17112427991121   -1.84952994344527
C         3.39730009275920    0.72245490292196   -0.61893816819563
C         3.39183452108146   -0.71330741410306   -0.61669736726104
C         1.98071411312310    2.29538613515235   -1.85159803260123
C         0.75514471294623    2.29386523120963   -2.60837402442436
C        -0.23558213104003    3.01277735846455   -1.84684124838406
C         0.37593385341823    3.45714239932887   -0.62212792522645
C         1.74284453159983    3.01656373239954   -0.62548557423657
C        -1.55613490326715    2.58474112546389   -1.85164874755013
C        -1.93531336554946    1.42016472941136   -2.61005792058170
C        -2.92272332832581    0.69707875272807   -1.84966273542431
C        -3.14129467463929    1.41310488330814   -0.61901406732709
C        -2.30561552460301    2.57453827723933   -0.62068956144350
C        -2.92309069719067   -0.69072030324093   -1.85018248261025
C        -1.93736224302581   -1.41304573325377   -2.61209441426793
C        -1.55754869406348   -2.57796719220996   -1.85399723926228
C        -2.30561169054705   -2.56916244661656   -0.62222270263976
C        -3.14099109207208   -1.40804696920454   -0.61967677657031
C        -0.98018774218879   -0.71599245704625   -3.34292179688620
C        -0.98038069778036    0.72439233037906   -3.34238171156986
C         0.39026527740241    1.17045721946399   -3.34031226377433
C         1.23646351903695    0.00450993324441   -3.33964089379325
C         0.38879656276225   -1.16191004996298   -3.34205118406182
Cl       -1.55958282509546   -0.04583315771935    5.32704595398642
Cl       -4.08376350208786    0.00483396861259    3.81064387292219
Cl        3.00098396660279   -2.17693463080037    4.11987498551740
Cl       -1.19318378204093   -3.64770803225848    4.07746722402328
Cl       -1.20856926494134    3.68162191400893    4.06106475540175
