62
 energy: -137.552600434199 gnorm: 0.000207518227 xtb: 6.4.1 (a3dbbd7)
C        -1.29990161045759    0.01069854306350    3.52305359714396
C        -0.35717918799062   -1.15767989260743    3.29653280765922
C         0.95056786421142   -0.71384586193816    3.26869715274038
C         0.96946100837512    0.72484532283879    3.26092010538906
C        -0.38074457750654    1.18865755848997    3.30008308073377
C         2.31452271907535   -2.57292883461277    0.57507387773230
C         3.15612019346254   -1.40243981335118    0.57800899423857
C         2.94768916650928   -0.69365158653049    1.79890938569278
C         2.08141465053490   -1.51812334685909    2.72562267268668
C         1.57451934073060   -2.59847949546837    1.79651553230051
C         3.16517023227633    1.40312452955568    0.57404309360210
C         2.32113260065169    2.57273736898793    0.57784101830824
C         1.56900969676485    2.57622138329746    1.80914600266240
C         1.94426691655571    1.42679026414616    2.56439216428316
C         2.93021357729283    0.68028772709154    1.79276218366859
C        -0.36807683808649    3.44673077705082    0.58607623714979
C        -1.74380822136879    3.00899999230712    0.58380003499187
C        -1.99005486951446    2.30114247995352    1.80537447722081
C        -0.74495389631118    2.29048725861787    2.56626244867114
C         0.24212248736581    3.01067525715057    1.80795721263478
C        -3.40846789025686    0.73129488491946    0.57152588223700
C        -3.39432659155085   -0.70562184238865    0.57699157606197
C        -2.76682770444472   -1.13116526925123    1.81805189433988
C        -2.42659790803418    0.00252854784744    2.55047727476475
C        -2.78994940054309    1.16927149130975    1.80035939443929
C        -1.71680610631210   -2.99733059852952    0.58259139456346
C        -0.35151795546558   -3.45017101890343    0.57251873995967
C         0.26326217697553   -3.00233698773899    1.79038772851587
C        -0.75086245994978   -2.29623454834792    2.56949936027463
C        -1.94513996620843   -2.28897743100776    1.82703892172964
C        -0.24290539179139   -3.01479543458451   -1.83734448106044
C         0.74522657741802   -2.28972065115768   -2.59671955312338
C         1.97319469114679   -2.28870352833547   -1.84093916296984
C         1.73600455411477   -3.00921483213306   -0.61317859120147
C         0.37290888172243   -3.45830523553103   -0.61510074076833
C         2.78519388936018   -1.16577343106292   -1.83743874202445
C         2.40701709643160    0.00330344937312   -2.59465732318712
C         2.78780271086567    1.16634082181735   -1.83681255793990
C         3.39886421319300    0.71718364379686   -0.61184470938751
C         3.39565843935415   -0.71725001461940   -0.61051858520325
C         1.96699067388909    2.28833645454659   -1.82980472286728
C         0.74319008177670    2.28979800492587   -2.58335430582435
C        -0.25037105763422    3.01241761728717   -1.82106162641593
C         0.36104808040616    3.45338225494687   -0.59956014929348
C         1.73222887109807    3.00505851768710   -0.59994104295107
C        -1.57379632276520    2.58684004354122   -1.82591952978237
C        -1.95121641379680    1.42062383132669   -2.58730866431885
C        -2.94626620109949    0.70206791419439   -1.83158993027121
C        -3.18476625501743    1.42543239114020   -0.60937642508195
C        -2.33491958080053    2.58928252852028   -0.60661651688996
C        -2.93972176503416   -0.68761646853110   -1.82294276918912
C        -1.94547904471043   -1.41077051537238   -2.57830765111437
C        -1.56261178618193   -2.57591374087136   -1.82243716262886
C        -2.30854632098503   -2.57262387191521   -0.59293171383160
C        -3.16629904764373   -1.39909458286450   -0.59458735210761
C        -0.99398643286465   -0.71700289956537   -3.31255670916750
C        -0.99567524402520    0.72501380007083   -3.31343163382839
C         0.37654813440669    1.16902432738180   -3.31587745347318
C         1.22292731059569    0.00402758536533   -3.32058572634215
C         0.37662529236839   -1.16346709665209   -3.31939449468785
Cl       -1.93380864784587   -0.00619874765358    5.23157857812859
Cl        3.05985491449878   -2.23364055776155    4.09113217055574
