62
 energy: -137.582502282539 gnorm: 0.000157619936 xtb: 6.4.1 (a3dbbd7)
C        -1.29581008806936   -0.00000000000000    3.58340171912715
C        -0.37310674810605   -1.16621534045853    3.28961255252150
C         0.98196004485437   -0.71952775182802    3.26893278250929
C         0.98196004485437    0.71952775182801    3.26893278250930
C        -0.37310674810605    1.16621534045852    3.28961255252151
C         2.33817093458107   -2.58177360000427    0.58008201172540
C         3.18695335090702   -1.41551140279449    0.57862384309487
C         2.95136679460042   -0.69331553714007    1.80335294083455
C         1.95357429639876   -1.41428791984705    2.55517990311263
C         1.58096449273380   -2.57707021306166    1.80478902699309
C         3.18695335090701    1.41551140279450    0.57862384309487
C         2.33817093458107    2.58177360000428    0.58008201172541
C         1.58096449273380    2.57707021306166    1.80478902699309
C         1.95357429639876    1.41428791984705    2.55517990311263
C         2.95136679460042    0.69331553714008    1.80335294083455
C        -0.35992305003719    3.43716377615657    0.58234293927647
C        -1.73010546996214    2.99269024735860    0.58152779341419
C        -1.97194475111218    2.27490931863619    1.80141891242199
C        -0.72936249956021    2.27497222888977    2.56935344293869
C         0.25357852924663    2.99276923921657    1.80754395636634
C        -3.36296034275320    0.71953376697638    0.58358606081573
C        -3.36296034275321   -0.71953376697639    0.58358606081573
C        -2.77549781820220   -1.16615401414948    1.80490251414163
C        -2.62586592572082   -0.00000000000000    2.76160242679097
C        -2.77549781820219    1.16615401414948    1.80490251414162
C        -1.73010546996214   -2.99269024735861    0.58152779341419
C        -0.35992305003719   -3.43716377615657    0.58234293927647
C         0.25357852924663   -2.99276923921657    1.80754395636634
C        -0.72936249956021   -2.27497222888977    2.56935344293868
C        -1.97194475111218   -2.27490931863619    1.80141891242199
C        -0.24277675805433   -3.00743718354582   -1.82730510037251
C         0.74837293554775   -2.28842187190877   -2.58335725647865
C         1.97594538344728   -2.28842325633463   -1.82466300817304
C         1.74295752497291   -3.00744493942293   -0.60003804284439
C         0.36935815890500   -3.44809773420812   -0.59764357902414
C         2.79333344487222   -1.16585863544160   -1.82683218981031
C         2.41298366328458    0.00000000000000   -2.58387935221995
C         2.79333344487222    1.16585863544160   -1.82683218981031
C         3.40995699122949    0.72110153574260   -0.60269283081264
C         3.40995699122949   -0.72110153574260   -0.60269283081264
C         1.97594538344728    2.28842325633463   -1.82466300817304
C         0.74837293554775    2.28842187190877   -2.58335725647865
C        -0.24277675805434    3.00743718354582   -1.82730510037251
C         0.36935815890500    3.44809773420811   -0.59764357902414
C         1.74295752497290    3.00744493942294   -0.60003804284439
C        -1.56449634547979    2.58177725953323   -1.83193604931222
C        -1.94277696667026    1.41551533115058   -2.59176644313578
C        -2.93284772032608    0.69331392359759   -1.83334199968429
C        -3.15906927490986    1.41426812284121   -0.60465128717151
C        -2.32126942354297    2.57705157901577   -0.60695720913016
C        -2.93284772032608   -0.69331392359760   -1.83334199968429
C        -1.94277696667026   -1.41551533115058   -2.59176644313578
C        -1.56449634547979   -2.58177725953323   -1.83193604931221
C        -2.32126942354297   -2.57705157901577   -0.60695720913016
C        -3.15906927490985   -1.41426812284122   -0.60465128717151
C        -0.98589671597899   -0.72110204518940   -3.31951857207155
C        -0.98589671597899    0.72110204518939   -3.31951857207156
C         0.38477101069645    1.16585890029395   -3.31542761542646
C         1.23199145905904   -0.00000000000000   -3.31378506514784
C         0.38477101069645   -1.16585890029395   -3.31542761542646
Cl       -1.59616640859823   -0.00000000000007    5.37027198584488
Cl       -4.08941167031331    0.00000000000011    3.82988004015253
