62
 energy: -137.578032860852 gnorm: 0.000160955957 xtb: 6.4.1 (a3dbbd7)
C        -1.29555128995879    0.00413901569197    3.54488658411889
C        -0.36776135286800   -1.17234113136541    3.30499802118895
C         0.98321378850654   -0.72192097425751    3.27486118481437
C         0.98180233979479    0.71955332451920    3.26934002134633
C        -0.37043965610415    1.17931480157543    3.30128361543255
C         2.33654155070594   -2.58569279342372    0.57932421760239
C         3.18673744810997   -1.41975522666328    0.57755474192471
C         2.94978852446473   -0.69880139185585    1.80093383233040
C         1.95328017277578   -1.41764092480096    2.55592869040294
C         1.57972230040030   -2.57979653628567    1.80502497126022
C         3.18796848307936    1.40957363625195    0.57556209699870
C         2.33840742152929    2.57369047275567    0.57554772730609
C         1.57716059359516    2.56582233024309    1.79939212175073
C         1.95332598607613    1.40817401552325    2.55168088323391
C         2.95098138643316    0.68848162297386    1.80063081641407
C        -0.36477687820301    3.42658425365318    0.57899775354989
C        -1.72894430207533    3.01677466377906    0.58274146680796
C        -2.09441913575572    2.46267886286601    1.94724727672326
C        -0.72997350394984    2.28579757764909    2.58225203998203
C         0.24864860968863    2.97585794514289    1.80310479334371
C        -3.37444486667752    0.70324332715393    0.57569513113496
C        -3.38974442201721   -0.73247603804267    0.56830351280013
C        -2.76792594069212   -1.16333250834208    1.78866326860677
C        -2.38883510467775    0.02458534817426    2.53264203517400
C        -2.74811405441870    1.13026971547203    1.81413223196648
C        -1.73475246046872   -3.00990028448321    0.57932844367149
C        -0.36147434496615   -3.44688891148004    0.58173026019680
C         0.25225973695999   -2.99475101597504    1.80539762705777
C        -0.72916493923668   -2.27335565689739    2.56454950776944
C        -1.97128486476689   -2.28727169220306    1.79856973909582
C        -0.24419655336016   -3.01449435303848   -1.82658840579801
C         0.74943944404165   -2.29317590773246   -2.58302158614588
C         1.97458762751051   -2.29269349726278   -1.82561051117684
C         1.74141169105546   -3.01149849060057   -0.59959512787394
C         0.36857449685111   -3.45450042600166   -0.59771306230857
C         2.79455216309034   -1.17068046674693   -1.82858175758309
C         2.41594644041682   -0.00550110847862   -2.58576293424403
C         2.79837455671054    1.16066472939994   -1.83079079782371
C         3.41384836551202    0.71515753691147   -0.60598910422974
C         3.41147027911544   -0.72616600164793   -0.60465510515806
C         1.98292266419265    2.28504282622154   -1.82996556527013
C         0.75381729352410    2.28521048456653   -2.58597742492689
C        -0.23468093128265    3.00411015898980   -1.82361067165055
C         0.37401370460170    3.44263584496767   -0.60246517442984
C         1.74722940445102    3.00212942386631   -0.60407390466406
C        -1.55527664238562    2.56802148130742   -1.80950648964108
C        -1.93827876499863    1.40578691060663   -2.57172566986216
C        -2.93521917109778    0.68459105766193   -1.82149230125906
C        -3.16869465115992    1.39782007965917   -0.59614313880954
C        -2.30405135916359    2.57342604889014   -0.58507615756269
C        -2.94094472567037   -0.70771901111846   -1.83444372046526
C        -1.94492902349749   -1.42396138410130   -2.59111677376683
C        -1.56545881124127   -2.59179181094716   -1.83221357177607
C        -2.32831369329751   -2.59311144813189   -0.60924280981485
C        -3.17748191142996   -1.43204540507769   -0.61436473453825
C        -0.98762622953301   -0.72656400563164   -3.31337648186978
C        -0.98636394309856    0.71537601131184   -3.30746188533813
C         0.38568266241503    1.16081412477177   -3.31092800308144
C         1.23124536961881   -0.00502718360273   -3.31222779713299
C         0.38456885586636   -1.17027331531731   -3.31272741183597
Cl       -1.95463049015751   -0.00797619777374    5.23360322583566
Cl       -3.13429829881387    3.62261904603603    2.87428877918148
