108
 energy: -324.545227784390 gnorm: 0.000303688455 xtb: 6.4.1 (a3dbbd7)
C        -1.40085397689084   -0.00288304929151    3.72224147794392
C        -0.45526944786524   -1.28843318176524    3.66350534406532
C         0.92979466638444   -0.73551372444788    3.34624757222527
C         0.85679043086670    0.64323611291567    3.20107873904727
C        -0.43544391182453    1.12687394188411    3.36700053742227
C         2.28460157257642   -2.55717805586595    0.59385705122053
C         3.38499859534070   -1.51251056031868    0.63653133075600
C         2.93933291540605   -0.70028192115631    1.83643834607387
C         2.08378449555800   -1.53124885362061    2.79035261696273
C         1.54617706105810   -2.55288958003739    1.79537699797574
C         3.20313206419844    1.42787748050829    0.59851229417453
C         2.53193083927785    2.78260737339812    0.67364722958545
C         1.57565518430295    2.55872225517591    1.85080141451611
C         1.87123630922500    1.38766076453572    2.50725713437052
C         2.86208600943990    0.64891714052040    1.76786946913533
C        -0.34416992808053    3.38310983244219    0.65444285995777
C        -1.72365771676394    2.94357177277460    0.65536539966804
C        -1.99947929677725    2.30253615196853    1.85394121718484
C        -0.81556958030398    2.45246659998985    2.79319160871530
C         0.24658627706292    3.00258827983951    1.84105003531893
C        -3.33817003886620    0.63907591063039    0.59216949538228
C        -3.45852368726374   -0.71626342426425    0.59060189418226
C        -3.05147018390893   -1.23084710701714    1.96634426246682
C        -2.46193091113965    0.00190511782327    2.64039365005583
C        -2.72836259101844    1.09052156941613    1.85078978143695
C        -1.74731998094776   -2.93559906089856    0.56307953766035
C        -0.38312793908870   -3.37980328207661    0.57262599557363
C         0.21568678869658   -2.91267013400902    1.77795952917146
C        -0.81141790428596   -2.20505016143149    2.52523690377644
C        -1.96729735444373   -2.23481905949046    1.82008377825369
C        -0.25708504727287   -2.99010606966829   -1.82570607480191
C         0.74183965910069   -2.27246315263891   -2.59103538928491
C         1.93950382331782   -2.27663585228153   -1.84996678861828
C         1.70683361307302   -2.96353006175361   -0.59812059097609
C         0.35091109390821   -3.41964757548771   -0.60502675363069
C         2.69368183516093   -1.07445737003315   -1.80648063415881
C         2.41745822969536    0.02206689391125   -2.60291381788460
C         3.05756832391562    1.25508214230344   -1.98199540565826
C         3.34232392570258    0.73649779456534   -0.57358431871998
C         3.32792326717470   -0.66188045154376   -0.59540647272796
C         2.13649904217389    2.50243677971494   -1.98687712801445
C         0.75436012461487    2.18601544474474   -2.56067008848144
C        -0.22043837716914    2.89528843499077   -1.77697106151891
C         0.42506083658245    3.32606969185164   -0.55894790558983
C         1.75116930052761    3.00078402027681   -0.59082565364972
C        -1.54555071048616    2.51958976367607   -1.79220213457402
C        -1.94845883147294    1.41335468419752   -2.57804586430728
C        -2.90585520259395    0.69604309450156   -1.84067916313742
C        -3.14271435317874    1.40431810312795   -0.59181059152887
C        -2.32227395702314    2.52079716685182   -0.56309960111268
C        -2.94224977334818   -0.69351417840159   -1.86457008324479
C        -1.93711512118792   -1.38563094341387   -2.57007327833717
C        -1.57103075605234   -2.55022497546995   -1.81209944614494
C        -2.34930647646304   -2.57591936099213   -0.60892742126040
C        -3.44700479549843   -1.52346858164883   -0.68055102813349
C        -0.95377950371321   -0.71435413204361   -3.32508351587972
C        -1.04035206680598    0.77961326912254   -3.58679819451886
C         0.42087081902666    1.17490457015094   -3.38130114739390
C         1.34120573578816   -0.00473632564826   -3.64734248460408
C         0.36319247206464   -1.14646950415969   -3.33769997396241
C        -2.05168264203797    0.32484993061781    5.11199982315452
F        -1.19915588473969    1.00959393333265    5.87829405100588
F        -2.46808250257316   -0.71237810500055    5.81890817928948
F        -3.12642605141423    1.09386006100416    4.91465566976049
C        -0.42837377103187   -2.20992611235235    4.91679056817496
F        -0.11304914658634   -1.57744885929018    6.03706811607198
F        -1.58226726938649   -2.85115546183523    5.08383851838305
F         0.48707177504373   -3.16815165172118    4.72706488186461
C         4.48082660139639    1.41972299524200   -2.61051003626597
F         5.09643346858737    0.23558051202665   -2.64150765282827
F         4.45576798619185    1.87302973047918   -3.85610575033995
F         5.24999794966049    2.22378072151870   -1.88325596075588
C         4.79445285106480   -2.15728103954878    0.75881811310292
F         4.82958389920076   -3.11039734187090    1.68641455285442
F         5.14130425479392   -2.72651439392806   -0.39690381162738
F         5.71733966415112   -1.24891188767857    1.05960532077138
C         2.99006004266079   -2.13654128206636    3.92510435059917
F         3.02983663948993   -3.46228287879394    3.89210196807184
F         4.24374677500004   -1.69185637913556    3.80828530155556
F         2.57671656200748   -1.76004047287368    5.13427569943002
C         2.60174709571132    3.72344004596711   -2.84561305842471
F         1.77249683877874    4.75262836608442   -2.63408498684307
F         2.53610474535018    3.44999373121522   -4.14708290457505
F         3.82127045042592    4.15779432660781   -2.57237225382582
C         3.50031765181428    3.94657587923811    1.00322873703436
F         4.10913817233442    3.73735575785425    2.16878739828221
F         4.43857901951900    4.09816607752399    0.07687558989819
F         2.83120342776794    5.09734355865985    1.09747272165817
C        -1.04118494627866    3.57045294426187    3.85573122192569
F        -1.26317050393365    4.73789299606622    3.24799913167199
F        -2.07119222034717    3.34969303894884    4.65516723821608
F         0.04515371411899    3.71247237175126    4.61187423128595
C        -4.26925674202878   -1.78446874397847    2.75379553248478
F        -5.35615744111426   -1.04242240358658    2.54917405869331
F        -4.54967701184250   -3.03247941192651    2.38976363981357
F        -4.03725345179907   -1.79954299719617    4.06189620278098
C        -4.82449984691086   -2.12403210455566   -1.05048300201839
F        -4.75586145463803   -2.79563299564024   -2.20233815482359
F        -5.73352413176754   -1.16115050894093   -1.20135893048446
F        -5.27664316596918   -2.96682191831844   -0.12887567285589
C        -1.55548780081511    1.11299833549045   -5.01165831219247
F        -0.86645318857087    0.49548450612207   -5.96421656163063
F        -2.82990958507365    0.73964844745223   -5.13928117821962
F        -1.49308881380846    2.42252780371084   -5.24372629370233
C         1.92770463012315   -0.09713954291888   -5.09457984097736
F         1.31422278004994   -1.03475102369963   -5.81540529296491
F         1.81793722248114    1.05849595839237   -5.74160354301452
F         3.22088827008064   -0.42209034109223   -5.06202793662030
