108
 energy: -324.582817928108 gnorm: 0.000261886020 xtb: 6.4.1 (a3dbbd7)
C        -1.36524639879372   -0.00767000057588    3.67616395598793
C        -0.42320895787040   -1.31795290586146    3.75116365681688
C         1.09940201016995   -0.79289541269158    3.72339685755756
C         0.92383541874247    0.62955469086150    3.23097914189198
C        -0.39877760290645    1.08018913118974    3.28022494592678
C         2.34520118329323   -2.55048290131417    0.60820382179418
C         3.18261436159301   -1.42556320819104    0.62669315342648
C         2.96860626619625   -0.70598086956472    1.85957250936817
C         2.16087401878824   -1.58166477008591    2.82403981001143
C         1.57949507788033   -2.55538263562237    1.81431291469472
C         3.40056023927200    1.49645895173039    0.66781063272405
C         2.31101505921789    2.55371992983696    0.61676115246600
C         1.52855313537904    2.47438558623196    1.76757052476457
C         1.89341363202112    1.32784783525755    2.54467268646837
C         2.95757732973036    0.64825989627772    1.86049378007590
C        -0.40822236459000    3.42516549021466    0.61751369390252
C        -1.91247369471823    3.21302111925468    0.67495698051711
C        -2.03880123623232    2.27270832855994    1.86513753572058
C        -0.78168832676086    2.19489518066425    2.54984108090800
C         0.18496514865456    2.90973810086114    1.77183179263479
C        -3.45503545595554    0.70668758706388    0.61259560184128
C        -3.40612072882477   -0.69953823827794    0.60066160253074
C        -2.76530992711076   -1.12288136066543    1.84367795818055
C        -2.43040892279786   -0.02489415386236    2.59227544188072
C        -2.81759216876866    1.14999807748316    1.83941680052613
C        -1.66016044077322   -2.94329858448399    0.60209478693372
C        -0.35399281401557   -3.39401393897336    0.59607805963803
C         0.26816378964189   -2.92492179816151    1.79823181173482
C        -0.71449117648951   -2.21320362714264    2.57652938424342
C        -1.88380233741356   -2.23367821801785    1.85263930673155
C        -0.24741175112630   -2.98774367571223   -1.83226758636459
C         0.73130716900545   -2.25577465465481   -2.55361006721120
C         1.95026168205526   -2.29032992776996   -1.77922513194504
C         1.75983088084787   -2.98395841265613   -0.61951176729885
C         0.41075280607102   -3.68810909968204   -0.65496088531043
C         2.97039389490407   -1.21232397189491   -1.93192823595630
C         2.41197916562120    0.03309054373583   -2.59884924239703
C         2.70868675323889    1.12326923142394   -1.80717522836336
C         3.34801990597725    0.67353359209674   -0.57917405614246
C         3.39141583723584   -0.68865171635364   -0.56706536034776
C         1.97428990936916    2.32262502029339   -1.80380976055057
C         0.78030830156456    2.46843387253305   -2.72587965564098
C        -0.28290761415110    3.02583076874833   -1.79666120629117
C         0.31470473928865    3.39327609677913   -0.57667221258575
C         1.70245734831422    2.95297152859366   -0.58350270729693
C        -1.58756478702215    2.53090899861843   -1.79023862723312
C        -1.96144569370116    1.42819393620907   -2.57798574627744
C        -3.20435959892140    0.78491992140849   -1.97060497051733
C        -3.17020831792027    1.41022964611302   -0.56940756082764
C        -2.36686061256910    2.52211365324792   -0.57829133596188
C        -3.19644229735981   -0.78186393046292   -1.97698026081363
C        -1.91827289445879   -1.38597712973964   -2.55430516899476
C        -1.54683386459515   -2.52527579729400   -1.80042004713823
C        -2.32069602383821   -2.52011103608728   -0.57257873908462
C        -3.16790695074110   -1.41001256705972   -0.57828264115156
C        -0.96454183659964   -0.71172271798928   -3.27578565043269
C        -0.94997792965078    0.74545333711506   -3.27469212732560
C         0.35525667400936    1.17930256387732   -3.34738630118823
C         1.30832149598825    0.01178726691593   -3.61441276195945
C         0.37587790027795   -1.16194673065375   -3.31843788305535
C        -2.16615972724674    0.40939653182869    4.95120505792369
F        -1.45572485181790    0.67321606801900    6.03476060279539
F        -3.08812218849732   -0.49368753644166    5.27393577846434
F        -2.82449797066547    1.54424734550762    4.66735433955402
C        -0.75284099785609   -2.25193330182493    4.95099368345139
F        -0.67642416073925   -1.71074449463718    6.15826051226446
F        -1.99067012676799   -2.73735563618448    4.81796723225911
F         0.06824043056656   -3.30377621182428    4.93440135444411
C         1.70390563003893   -0.52981105517341    5.14121211446044
F         0.91486796266609    0.27234516528378    5.85136877186274
F         1.94297133417481   -1.60107685248637    5.87993399109766
F         2.85215710387819    0.14649271942978    5.00480753122585
C         0.57051279400676   -5.20630510803124   -0.89171466007950
F         1.25462012002866   -5.45603293263553   -2.00853873156192
F        -0.61452386159290   -5.80395366146208   -1.00408036755206
F         1.22089688509699   -5.78559708788261    0.11623360534579
C         4.21767522410295   -1.74355949548373   -2.68919940150636
F         5.15388022364672   -0.80390248351216   -2.79129591959387
F         3.90903926938992   -2.14943406933800   -3.91489435460034
F         4.75243866259443   -2.77745049610802   -2.04257188019649
C         3.19638860971994   -2.48238220827148    3.59201845164730
F         3.97760751501804   -3.10600436421595    2.70067490476479
F         4.03040487340278   -1.83114720886001    4.39017120737181
F         2.59723886320324   -3.43667742197769    4.29305324130305
C         1.10565630922517    3.52501930262035   -3.82180041764838
F         1.45300592027795    4.68889419653934   -3.27823991814053
F         2.10812116001640    3.12483161226452   -4.59419065022093
F         0.04962197529108    3.74190807069085   -4.59729773079887
C         4.80534210441981    2.10504518666947    0.88919156863063
F         4.84441072418075    2.84280666421829    1.99689697074615
F         5.15271713168208    2.89016812858470   -0.12958188399938
F         5.72910969751684    1.15257556971877    1.00229374119028
C        -4.44359526280210    1.47550300556651   -2.62325431756627
F        -4.24747593189771    2.79796306677802   -2.67539701499945
F        -4.68272796492150    1.08738577977424   -3.86888125732747
F        -5.55045191827588    1.29488439919773   -1.90554463206754
C        -2.68375991944615    4.53474745861089    0.89395853823640
F        -2.28107742825693    5.15092697093626    2.00532858484038
F        -2.48995413287546    5.37579682956746   -0.12094153383214
F        -3.99227472101469    4.32001795903414    1.00125955516871
C        -4.33370068961180   -1.48334382585476   -2.77948092414480
F        -4.27791127033906   -2.80474043225514   -2.57173708654585
F        -4.19601229117976   -1.31274288068782   -4.09329702074161
F        -5.55855179319599   -1.10732162528886   -2.43238356404619
C         1.82114707833809   -0.01530316899835   -5.08890095905947
F         1.02637172292585    0.69712308338219   -5.88961679923015
F         3.05079267534795    0.48765181019795   -5.18751102403720
F         1.85444553901252   -1.25615084337427   -5.57380894136022
