108
 energy: -231.688445613611 gnorm: 0.000337764736 xtb: 6.4.1 (a3dbbd7)
C        25.43839526073727   16.37367535297232   19.07888600128036
C        26.34759843294422   15.29072699607398   19.17655472007107
C        29.04601762580196   17.46220014622438   23.21679623938692
C        29.18214162528048   16.47039530252998   24.23671186723430
C        28.99369613576834   16.81798099750426   25.61336602641109
C        28.92693283829157   18.17810695325768   25.92612066610748
C        28.80432897099133   19.16676918422133   24.90711850842562
C        27.25094844101495   21.00094317038970   24.62409066482984
C        28.72794837073001   18.81803246725635   23.55638337461079
C        27.24831703440003   20.72995572359639   23.22277961631058
C        27.92279332620336   19.63804390805408   22.67335137969390
C        25.97479575431610   21.14514601169012   22.73203588579353
C        27.42568710685701   19.08721211854526   21.43853715361455
C        25.42824428020047   20.54085210451110   21.59246163026057
C        28.02914924253243   17.87748821932196   20.97762166409322
C        26.16739490721120   19.51627487556078   20.91376802191057
C        28.85491286420713   17.07407587164294   21.85138719006213
C        29.05842657798702   15.72854728382069   21.53458251970400
C        29.20701831347690   14.74265669745462   22.55281922279006
C        29.13795973856879   15.07587636249841   23.90784872570109
C        28.57698260613548   14.11000931386008   24.83135640247230
C        28.04798042924859   14.55128121806131   26.09654765775625
C        28.40861464987153   15.86392321212063   26.52892476252121
C        27.75745601679643   16.36824236728026   27.66233202184889
C        27.63286518255168   17.76920827385537   27.92105896739360
C        28.22080617316126   18.66742204539725   27.07688964559271
C        27.55596912381079   19.90017157965131   26.74602904946424
C        28.03735234384031   20.24739783101018   25.45563793670584
C        25.43440791616144   18.64484262380282   20.03544545704677
C        26.11594489505680   17.57486142040385   19.48323962015656
C        25.37862319900800   20.92703456398697   26.23242956086308
C        27.43383978215872   17.24006062404843   19.88115187121596
C        25.94254279313442   21.38801706559470   25.03638880373994
C        27.59274506547641   15.84274984510257   19.62139011758420
C        25.17103021861073   21.54946923155250   23.83475397663381
C        28.40533631010521   15.09408301620856   20.42406973073109
C        28.03596217042441   13.75093096687523   20.78563926513381
C        28.65454021621042   13.52111511884550   22.04339511199304
C        24.02792107781384   20.57811738745576   21.50005313155446
C        28.09485213404493   12.62384689349861   22.91483568661273
C        23.32457127813242   19.53769511196505   20.80144148797606
C        28.11704111881824   12.89698834790788   24.31552927931062
C        26.99064725255991   12.22559761338666   24.87729011447811
C        26.39657932792550   12.70813134621673   26.05064978670535
C        26.94142203305229   13.86973836723018   26.69134389443061
C        26.09387626391966   14.57234012150074   27.61659315254050
C        26.56549379408804   15.76543612746290   28.13462406464307
C        25.67473046393661   16.79914023963216   28.58552149322724
C        26.32756473053931   18.04886373913414   28.44153938427824
C        25.63056445416773   19.21904479334856   28.05278853004112
C        26.22767691890790   20.16350655993201   27.13406944699114
C        23.99371891386998   18.54501062645828   20.10782882564319
C        23.32363191629926   17.28313733261961   19.94412394601354
C        24.07006764664332   16.21347285366032   19.34805508016930
C        25.93707192544631   14.00250820526616   19.59830326889759
C        26.77269015842896   13.21117755017173   20.47470219049211
C        26.15811874303370   12.29136395679860   21.41971673814064
C        26.87563445658044   11.96694201216439   22.57749657503415
C        26.22723568476680   11.65375028207259   23.82117821110056
C        24.83738493589836   11.51243039041658   23.91170602987609
C        24.28707446851092   11.77083626185540   25.19084580079784
C        25.04364257864271   12.37676317311664   26.22482356048537
C        23.77978884471989   21.39383434225910   23.82668682076149
C        23.22245077284623   21.01718265351266   22.58037251571054
C        24.17875742600942   13.24970768636584   26.96995400922214
C        24.66286404706618   14.36552326137966   27.62939770961558
C        23.75245910751497   15.45866752318406   27.83991532082380
C        24.29003405382464   16.66543433114866   28.39794005594375
C        23.58042563937505   17.86525450679180   28.25861368836008
C        24.23453149167511   19.11551646392926   28.07349038224528
C        22.18243130037825   16.98449048934890   20.75110994214466
C        21.81692142085713   15.61587596222668   21.01298494995317
C        22.47702402246934   14.61306010675507   20.30050370368941
C        23.63896845394207   14.89185439037768   19.52120785479382
C        24.55186670479889   13.80898250243312   19.65997888387503
C        23.96312440415142   12.83475717115306   20.53720759658184
C        24.71544008058513   12.12627053139927   21.48214475180599
C        24.05409251011871   11.72417404153769   22.71412150600987
C        22.70864364609436   12.09363523945139   22.90714340789825
C        23.93247200093694   20.78346450844143   26.25543776898481
C        22.18683728532028   12.43711628313059   24.20368608718731
C        22.94759097274192   12.26185873663954   25.32422425838291
C        23.13026902620771   21.02915837460885   25.06674663852946
C        22.89285898999796   13.22980098873324   26.37551586817021
C        21.88409484482957   20.38298686906229   24.95051229152471
C        22.13390678612256   14.40385619634495   26.28318157641701
C        22.01122411863102   20.25383448055881   22.52258664205924
C        22.52868321620592   15.50477503035907   27.10302540245832
C        21.28124977937227   13.93821234612689   22.71221253070811
C        23.40318276156234   19.93808296127164   27.23830673569789
C        22.03342771154957   12.94904799772943   21.99616506013348
C        22.64305472792729   13.29342939431027   20.81825860939375
C        21.37013872013429   13.61352253666587   24.09696511135247
C        21.37147931913418   19.92905113299722   23.68461808820537
C        22.10047031077324   19.28958236488766   21.47026764442877
C        21.61299465005008   17.98245133376518   21.59954067976340
C        21.86798468758220   16.76382041187782   26.87157038431280
C        22.34222974614137   17.88775999355780   27.55044171110573
C        22.19548145784593   19.20945547553423   27.03212820103171
C        21.45905406475218   19.41009435638531   25.89408828259105
C        20.89188526867779   18.28004807178645   25.21714119361391
C        20.82904265307263   18.60751922815742   23.83162484170305
C        20.97379428742258   17.62694416935450   22.84686966991214
C        20.94025365848152   16.25993306819891   23.27305122203453
C        21.20052359193656   15.26312871230854   22.27634115270148
C        21.36217522612293   14.60870111304064   25.07766008338822
C        21.01611486420749   15.93518910132029   24.66273492116238
C        21.11814505834508   16.97067280728655   25.64870668066312
