72
 energy: -177.491136178784 gnorm: 0.000171171955 xtb: 6.4.1 (a3dbbd7)
C        -1.30307612037506    0.00947449882261    3.54080659091615
C        -0.36380363859576   -1.17221589980627    3.31804048500250
C         0.98896605631460   -0.70442644692074    3.26333739513340
C         0.97543436747070    0.73584085959586    3.25610848665334
C        -0.36949197282544    1.18986486434098    3.28959837294444
C         2.35966123345379   -2.56852672487578    0.57689716906131
C         3.15613837142746   -1.39261690024712    0.57224212264433
C         2.92147056827285   -0.67029485961928    1.80110781483331
C         1.97730459502409   -1.39160741654170    2.57923340777184
C         1.72191382346929   -2.75392509262842    1.94761143129894
C         3.17719452391900    1.44645920340625    0.57262037744654
C         2.33384732107646    2.61395265307377    0.57286456299893
C         1.57478530312129    2.60697107994523    1.79681462908367
C         1.94801563286422    1.44158327211001    2.54443942911843
C         2.93648066857641    0.72443002652355    1.79812391927232
C        -0.36671835379418    3.46964941946946    0.57399518300859
C        -1.73983739720991    3.02632512671092    0.57509948816423
C        -1.97916686132547    2.31041448747741    1.79872234837143
C        -0.73856927806565    2.29270573012645    2.55328298436305
C         0.24657252501620    3.01626097328126    1.79300548127978
C        -3.40854752970255    0.75381493369835    0.56295468400988
C        -3.40054315910035   -0.68240074903539    0.56141788780060
C        -2.77110968418256   -1.11886683563510    1.79958423163493
C        -2.42464604916291    0.00798135302910    2.53781875169597
C        -2.78052813825455    1.17922813709401    1.79192961297432
C        -1.73899020406886   -2.97832884170316    0.59738039756250
C        -0.34106251639661   -3.40519439107985    0.58882028832341
C         0.24829988973686   -2.99490210695812    1.80784555415878
C        -0.71355150516286   -2.25878995943716    2.53910832269810
C        -1.96596584627172   -2.27978656135810    1.78579181504645
C        -0.25415593229064   -3.21896134955775   -1.95166371486878
C         0.75256956840913   -2.26342194162382   -2.58537796232893
C         1.94345789145248   -2.24346747059471   -1.81245106996333
C         1.72427739293908   -2.96755188850766   -0.58677488179199
C         0.38205932253358   -3.46776490530084   -0.58715900600812
C         2.78264964403187   -1.12719340184288   -1.82571493942978
C         2.41181319460394    0.03081589538970   -2.58588714686730
C         2.79365494141686    1.19879359670607   -1.83468748861084
C         3.40274464020042    0.75229525426057   -0.60834255304729
C         3.39614995626283   -0.69030392772577   -0.60871862720175
C         1.97017536257590    2.31966197803799   -1.83228346785813
C         0.74047584440446    2.31529570552526   -2.58757417169205
C        -0.24969738780163    3.04272874486364   -1.83618819824821
C         0.36234738870687    3.47906179357391   -0.60769369649030
C         1.73660032559482    3.03853314076889   -0.60929246012705
C        -1.57166843539667    2.61108798131616   -1.83494882657471
C        -1.95440561570784    1.44804139514279   -2.59300560541385
C        -2.95629727072621    0.73203769961106   -1.84084092007432
C        -3.19011736292251    1.45166479033057   -0.61658189010162
C        -2.33268155997346    2.61225594328683   -0.61238307824110
C        -2.95054787196735   -0.65574064017710   -1.83506490511590
C        -1.94687491819936   -1.38645170351376   -2.57294323619850
C        -1.59388459762185   -2.54871579223270   -1.81179014635653
C        -2.30921153761373   -2.54044421222627   -0.61886946079421
C        -3.17673606677240   -1.37122209040838   -0.61043492958068
C        -1.00216685200669   -0.69647208266916   -3.31676207375899
C        -0.99737407168747    0.74125173021895   -3.31241646005838
C         0.37497755368744    1.18693150317466   -3.30952591644700
C         1.21916742079266    0.02291849193758   -3.29947974141117
C         0.37860507490794   -1.14562870518593   -3.29625410927072
C        -1.84845355535187    0.02674328127865    4.97753513320964
F        -0.86824517034951    0.03940374187613    5.88647498494218
F        -2.60826385075866   -1.04181216007247    5.23417277625431
F        -2.60335515507343    1.10757948988155    5.20525661866488
C         2.40373125581601   -3.88272093641900    2.74111326476683
F         3.71914171956661   -3.67592593172503    2.87132405298052
F         2.25248654946525   -5.06894605726960    2.14506416912401
F         1.90244716158230   -3.99439045194572    3.97461292321455
C        -0.37072700859726   -4.52108713747202   -2.75962258923741
F         0.81131057169898   -5.12794579634000   -2.90698624343287
F        -0.84839538326162   -4.29723611477816   -3.98910645204385
F        -1.19205894174202   -5.39769002563647   -2.17486437053592
