156
 energy: -520.155974201073 gnorm: 0.000369300052 xtb: 6.4.1 (a3dbbd7)
C        -1.29872854979229    0.04056538730537    3.67467957366450
C        -0.40326334636080   -1.30725377027548    3.84847509055830
C         1.17332311921325   -0.88221385422098    4.01054163622006
C         1.12451840975508    0.73962190937132    3.82575425279388
C        -0.29667330580737    1.12958922607058    3.35224160450751
C         2.65254341848851   -2.87403308589330    0.73629708966443
C         3.54574535211154   -1.50438318242014    0.78220566137904
C         3.06816317716918   -0.86378984913045    2.07611564145212
C         2.34216739448645   -1.73010725399478    3.07023761367316
C         1.79683061331572   -2.90664562808317    2.11118465307151
C         2.92332084292725    0.98357550229446    0.54658919952036
C         1.89762266943025    2.05587145986971    0.54019269490993
C         1.42111303250176    2.28044415660196    1.82032660467172
C         2.19591195973863    1.49480131048609    2.92150813838129
C         3.25540942630296    0.63023793966532    2.05820785509050
C        -0.41761813198893    3.83238344589159    0.73409469717526
C        -1.63902726473913    2.92894914619177    0.68335211982927
C        -1.86887986882587    2.30718935011875    1.84700476572607
C        -0.76770720425330    2.54079772016969    2.92410600995878
C         0.34523993360409    3.33690001715638    2.06247767829526
C        -3.30678802537885    0.70587266693745    0.59065713591114
C        -3.57543016434061   -0.77740534586915    0.65818504019622
C        -2.67363379104491   -1.09565970757894    1.84359408556524
C        -2.32290053886944   -0.01093204009951    2.53392013010480
C        -2.96282022642485    1.25937374149145    1.96195228948269
C        -1.59898550934375   -2.90542169844715    0.59860614083759
C        -0.28816556012444   -3.25100585061468    0.62393046448039
C         0.32982594492362   -2.71676301293876    1.82442611481333
C        -0.61511412089401   -2.17456120423700    2.62673289632409
C        -1.98510801254377   -2.40127468896418    1.96843484040924
C        -0.19730101789172   -2.92307555028229   -1.78256605720522
C         0.77221719370998   -2.11978946271167   -2.40907930023566
C         1.87628694451923   -2.02203710578599   -1.48235813842319
C         1.73863696952944   -2.87854645193376   -0.45568692529262
C         0.44213870128658   -3.65206546376396   -0.60804622538247
C         2.51731420362727   -0.75656609164293   -1.43133940826340
C         2.35445227439340    0.19246593924188   -2.36414213299264
C         3.20837777942298    1.38980041562486   -2.00297970956055
C         3.89187801184546    1.06542642552095   -0.61162404434121
C         3.22497148430713   -0.31833515414108   -0.22699785720749
C         2.26211261924575    2.64742341892170   -1.97890546824371
C         0.85229837763101    2.33928009311662   -2.48762667149053
C        -0.16452808934487    2.93987482294945   -1.72607351279001
C         0.43261581593391    3.78718896197314   -0.60580498711798
C         1.70440168847612    2.91755156827188   -0.55584828813648
C        -1.48317490461255    2.56714262215690   -1.76130352420610
C        -1.83806274708106    1.39825529013990   -2.50097728092588
C        -2.83052391128249    0.66511204581604   -1.78565193234499
C        -3.04637407848202    1.34836523738533   -0.53579003287237
C        -2.43027657367039    2.72894103215779   -0.59114245532785
C        -2.86926598601912   -0.71076717784857   -1.81162141977155
C        -1.88320973999191   -1.40399594455229   -2.58013729626096
C        -1.51708696513356   -2.55975830070093   -1.82995826967934
C        -2.29138131918901   -2.55907838171058   -0.58896140133049
C        -3.10485190422134   -1.44727359261621   -0.59703756038349
C        -0.90996703507758   -0.66405094788703   -3.27764475438700
C        -0.90778250151294    0.75128050116029   -3.28425752809186
C         0.47476952307043    1.33241693416274   -3.55756881620002
C         1.40438988273711    0.06571734093276   -3.53402506513475
C         0.43667893806068   -1.05882325567970   -3.19773627182884
C        -2.42309845845517    0.34218486870677    4.83554880389311
F        -2.12249801782113    0.31507367793135    6.10673078079886
F        -3.46563706841054   -0.46795498816090    4.66953195658328
F        -2.90011500632285    1.55467736682061    4.57325060479266
C        -1.02068062952063   -2.19359006640852    5.02391487696101
F        -1.00113714772554   -1.70600604344659    6.24584553588834
F        -2.30406807292551   -2.39423749644713    4.73145984132751
F        -0.50890157110546   -3.40470925299296    5.09950166816440
C         1.66557448538001   -1.21096217235916    5.48556417083355
F         1.01090671557647   -0.73113809404833    6.52770467519273
F         1.66388329096884   -2.51589977514489    5.69886134478028
F         2.89740019052853   -0.74545972921031    5.64096861832256
C         1.08601346791970    1.47627272335055    5.25116272142325
F         0.00200022409708    1.11229796322431    5.91248255155283
F         2.10173086610956    1.37194201592431    6.07520220534904
F         0.90910508536010    2.76881709802995    4.99823506936737
C         3.38507790180563   -4.27276481429716    0.39328225545817
F         4.44360378290510   -4.63780074495426    1.07876275486157
F         3.66952647127755   -4.31872621241360   -0.91292578570508
F         2.49327337790682   -5.25054643094333    0.53385472710227
C         5.11784534928768   -1.84380607824762    0.42417249443591
F         5.92512652825484   -1.88153290840674    1.46175494490002
F         5.29325113575753   -2.97968503377631   -0.21763780692388
F         5.58634592424657   -0.96891871040250   -0.47426651973011
C         3.59852064994275   -2.52978668017227    3.85807508212548
F         4.30424490972281   -3.00993843805019    2.82969355900847
F         4.45137628093605   -1.85685382932125    4.58903715751057
F         3.31025121075068   -3.57920323296209    4.60102603990135
C         1.71120368201147   -4.36100660751513    2.78350331197512
F         2.82603050139815   -5.06036983154424    2.84600453973020
F         0.80729941781070   -5.10731262068963    2.14856896937740
F         1.23671731467800   -4.26240476449529    4.00824528174962
C         3.24500926266915    2.33787695077172    3.83263216719622
F         3.88379333225462    3.11819394272323    2.96801284491826
F         3.05254126862059    3.12431456098189    4.87741935062011
F         3.98986592434400    1.37707419088521    4.40451194651606
C         4.89578896152796    0.70292163965364    2.41651763827188
F         5.58547764194067    1.72632430656110    2.87992552849424
F         5.51985191096629    0.39050243862061    1.29217720725496
F         5.17521462389708   -0.28809245850189    3.24106576025168
C        -1.17304066806420    5.23054487178159    1.03773059142051
F        -1.59793330258268    5.22143883114027    2.29148440772539
F        -2.30076545359282    5.30959938143547    0.33993375577299
F        -0.54235422373188    6.36975261217167    0.84653458338471
C        -1.31620866217514    3.48769094574536    4.15511216567910
F        -2.54646966248124    3.90175542387646    3.93692515024939
F        -1.33605366303093    2.92912853310305    5.35574455052422
F        -0.55128735424065    4.55736471304474    4.30453731325677
C         1.19452345802915    4.61975451459945    2.49536322985302
F         0.61854115636682    5.78838830041322    2.67241372139061
F         2.05813229502743    4.78824619468267    1.47391984127609
F         1.91311688737933    4.45513906186312    3.57451289341942
C        -5.07342011176466   -1.17000823991980    0.87183331701136
F        -5.52412645516474   -0.85715660872534    2.07467355787636
F        -5.83150474022710   -0.57116784921689   -0.03999948576497
F        -5.22353926312490   -2.48299377351321    0.71438878124782
C        -4.38519281237622    1.82699681703836    2.45644202207762
F        -4.92270835434295    1.21006710278494    3.48744802885166
F        -5.26788454684281    1.68632080647130    1.45320284782222
F        -4.34499980656109    3.12176915882094    2.69442089836056
C        -2.90668322746745   -3.56694061727296    2.52943542915154
F        -2.22180076738855   -4.39552228429606    3.29992884198021
F        -3.38345820751071   -4.29978339018034    1.52150504000161
F        -3.96311703428972   -3.10767867460321    3.17835146776992
C         0.33974992398944   -5.17014895313960   -1.01778702842308
F         1.34421645016878   -5.49612279690161   -1.82081741311503
F        -0.79021748235247   -5.34174830637382   -1.71705573563996
F         0.27171275866862   -6.03834918716125   -0.02955306825267
C         4.35323490451434    1.22385487728231   -3.10481523827039
F         4.64142252403654   -0.08605476779496   -3.16681234037347
F         3.87466434686673    1.57951066058521   -4.28863930311525
F         5.52600483478265    1.79781309332448   -2.95281792533440
C         5.10165851994909    2.02793784883658   -0.39994613543047
F         6.31284707968879    1.57730670097485   -0.62011342480616
F         4.91122529933795    3.10978267991817   -1.15719070319585
F         5.03952542362869    2.57454376367226    0.81659180671734
C         2.94086251803867    3.87895907409004   -2.74812296088874
F         2.24344970647532    4.16220704977883   -3.84582875336180
F         4.15877981896012    3.68105497985580   -3.22396081683024
F         3.03701897335720    4.93359520191599   -1.95359319420562
C         0.46632143369303    5.22771490674078   -1.26673426860691
F         0.78394966853597    5.19026297276973   -2.55060662038667
F        -0.77608739988280    5.70959343197574   -1.32831988704498
F         1.25635650118232    6.09124434612804   -0.66785769641172
C        -3.63889466147063    3.66096871677365   -1.01017836375795
F        -4.44834049492822    2.95269195216375   -1.80841386809944
F        -3.27023270157808    4.70775186311017   -1.72805794061782
F        -4.36147216130852    4.04140218288799    0.02774050417706
C         0.31966770476240    2.07358037302965   -4.93885591332621
F        -0.22504536341458    1.24512022499522   -5.82726218756577
F        -0.52088836896251    3.09365227711362   -4.77990760180024
F         1.44051522467019    2.53316361890595   -5.45021423995577
C         1.99434187865209   -0.49532250892970   -4.89047210021856
F         1.01281536999607   -1.11559989391919   -5.56015705181944
F         2.52803417700381    0.34716451933960   -5.74824916653914
F         2.89857538843906   -1.42535604376138   -4.59308571609799
