64
-3991.623739457066
C      -1.302183668519317     -0.016266962241284      3.545646809931747
C      -0.379843399452696     -1.184205907197702      3.293372353951273
C       0.969599839194388     -0.721739845121994      3.236680556010155
C       0.964521259454507      0.710930322555923      3.230166668593170
C      -0.391969057817595      1.159885300535323      3.275768729735101
C       2.344948636638668     -2.559484289454273      0.559476864921345
C       3.204953775140984     -1.409297829696578      0.549949742480345
C       2.948005858066770     -0.692519595878431      1.769189208565713
C       1.939689754974257     -1.390446735577310      2.513325047952583
C       1.573763957321445     -2.546624877021191      1.769523606534544
C       3.208166394704403      1.403260779870268      0.551949976486031
C       2.344485993293612      2.550395593428630      0.560479682211848
C       1.563240705291448      2.534618458607003      1.765514373323549
C       1.936062647973958      1.383601144188485      2.513030851714390
C       2.947033514178068      0.686806792386085      1.769307988585806
C      -0.364543687021411      3.387702775698272      0.565618838183997
C      -1.739848918010516      3.004946889266405      0.571779259457173
C      -2.108089544133396      2.465950370966955      1.932845497314884
C      -0.748654076187694      2.259059487749320      2.560265487436812
C       0.241452269086185      2.936814838693171      1.782773334744103
C      -3.309193632857284      0.732393636293693      0.575167125002627
C      -3.351083234584302     -0.717532054513129      0.572639310496085
C      -2.698032567594337     -1.145636142096694      1.794933425039827
C      -2.335564213418421     -0.042007026570912      2.487790499923201
C      -2.718703807440350      1.134812724242746      1.723845323699017
C      -1.715733332651571     -3.029109840866421      0.606333837133922
C      -0.348085463272842     -3.431630234323846      0.582547995312029
C       0.258280337147718     -2.963985031141271      1.798822061734869
C      -0.728708821032288     -2.290686547527175      2.582318213508963
C      -2.090075371929717     -2.488058023461595      1.963388509301480
C      -0.219834404530581     -2.975598180661065     -1.806222732563282
C       0.774144607484985     -2.277527142616792     -2.575543377784131
C       2.004549873915376     -2.282766432982121     -1.839904702744398
C       1.756040489415577     -2.994454129039890     -0.611651822519470
C       0.390448209938681     -3.426759970814542     -0.594759601406754
C       2.825331671058358     -1.169174409145544     -1.847679941368815
C       2.449828407786200     -0.005199516094315     -2.604336310435160
C       2.834453805696203      1.159345958935842     -1.849350965990205
C       3.442746780180804      0.714857209114401     -0.625638847846222
C       3.441906014309255     -0.722353240455695     -0.625725449278525
C       2.014332077385447      2.272235171652104     -1.840993177288763
C       0.780596530749614      2.267210388065103     -2.576072323990173
C      -0.213450465883463      2.962351410363633     -1.809368484958477
C       0.387506020376315      3.393882660618892     -0.594659292276899
C       1.760238807891563      2.977622948656642     -0.614039677371266
C      -1.532540132939248      2.556038833757395     -1.786724502754251
C      -1.916747608340115      1.407574295240976     -2.559991093211290
C      -2.930588395581940      0.720584741406900     -1.829753349935039
C      -3.400825644753717      1.548864916427187     -0.660183993989589
C      -2.314423971593673      2.593943152701034     -0.591294608482470
C      -2.909376180706922     -0.647127957153434     -1.804962741435834
C      -1.907618225060451     -1.373553359622154     -2.527127559360625
C      -1.530395506678142     -2.539177268242391     -1.770404620540535
C      -2.284545174328048     -2.575258936525805     -0.552168592105948
C      -3.145678697607392     -1.394949300302477     -0.571653770115198
C      -0.953515769159256     -0.710209526692627     -3.275265394046089
C      -0.952857572837627      0.719169182600344     -3.285926391336385
C       0.411561180038352      1.153912400651744     -3.305821916032969
C       1.266663372338487     -0.005577366307500     -3.320669290656786
C       0.411844307139068     -1.157104344081187     -3.302575609928287
Cl     -2.016101519718982      0.005264945552962      5.204626470037015
Cl     -3.168927026745543      3.566753767406727      2.894905012999083
Cl     -3.170519996255623     -3.574359788871649      2.928779391784524
Cl     -5.061629232934061      2.240706815341404     -0.861493862711863
