72
 energy: -177.473204478509 gnorm: 0.002894961060 xtb: 6.4.1 (a3dbbd7)
C        -1.31568741215417   -0.01033511765599    3.55799542026347
C        -0.36871550524127   -1.18003855502864    3.28819549511637
C         0.96640810751618   -0.72034568740764    3.25519028822685
C         0.96161104946136    0.71858243628359    3.25611769780027
C        -0.38594584875187    1.17183693204771    3.29985427662340
C         2.34014037461326   -2.61023932736116    0.56920537190724
C         3.41734783915389   -1.52977925294958    0.62034822497972
C         2.95036690553522   -0.69993628982728    1.81392863333361
C         1.94789806733462   -1.40493795970080    2.51869232147010
C         1.57618902193018   -2.57490154475716    1.76738450949414
C         3.19005802194752    1.41118105408676    0.57589743354206
C         2.33546932613867    2.57175500070541    0.57094257755632
C         1.57319495508780    2.56947003055855    1.79150387587740
C         1.94050417350894    1.40658600662211    2.54106413205907
C         2.93948054055675    0.68444955843504    1.79325660938611
C        -0.35570761365719    3.44606480422805    0.57537644708369
C        -1.73461277143752    2.99435593512372    0.58487008501722
C        -1.97329568144812    2.31723438712637    1.79693514580619
C        -0.75458714497239    2.25965543640914    2.53079392489558
C         0.25019819981520    2.99198961987379    1.78709832253876
C        -3.41550847236778    0.72510603743309    0.55396313597804
C        -3.36875163711032   -0.68754355788304    0.56079965066435
C        -2.74362204932411   -1.10934815050279    1.80437657420955
C        -2.47081444914104   -0.01040008997135    2.59327198090826
C        -3.01769705622535    1.25115706076029    1.93165758644672
C        -1.72988242456822   -2.99365998644405    0.58231068602648
C        -0.36069051706281   -3.45016103459746    0.57487333861209
C         0.25259104968834   -3.01130365022217    1.78658610245890
C        -0.73768367366348   -2.29003779779582    2.54995430509893
C        -1.96385528633271   -2.29311272783166    1.80993498255591
C        -0.23953847970357   -3.01196153348864   -1.83320589631135
C         0.75345706100087   -2.29000351377395   -2.58966552020314
C         1.98327814844858   -2.29997121253705   -1.85076941015819
C         1.74312884178580   -3.00673852725115   -0.60810439654515
C         0.37129827689019   -3.44742264969336   -0.60966247291408
C         2.78423276644068   -1.15763078339376   -1.82989869365229
C         2.40253162038370    0.00527853820934   -2.59875848026807
C         2.78109581707612    1.16753611830362   -1.84295948868470
C         3.39241170996082    0.70107453017313   -0.61327441704112
C         3.41326355956977   -0.70949819646427   -0.63894589615980
C         1.97039044687756    2.28730652354744   -1.84003730532263
C         0.74248102079679    2.29406177759672   -2.59535031522078
C        -0.24222384313427    3.01479317423674   -1.83660908907910
C         0.37469177957578    3.45223758146675   -0.60562163442345
C         1.74042350479356    3.01014628608449   -0.60739418701468
C        -1.56812300455653    2.58556108157641   -1.82802181005361
C        -1.94428599641919    1.41720577942226   -2.59097031293326
C        -2.93647419388354    0.69724623465547   -1.83511611919799
C        -3.17550675973679    1.41914606843119   -0.61424238274529
C        -2.33456752119190    2.59673818263135   -0.61824298145826
C        -2.94015593202647   -0.69279058926469   -1.83786187595026
C        -1.94656165264077   -1.41727473211374   -2.59301080566602
C        -1.56434728081465   -2.58065817051743   -1.82920080892526
C        -2.31760428492292   -2.57374113620291   -0.60944182362198
C        -3.16363272153654   -1.40138325029552   -0.61388077440069
C        -0.99097206777980   -0.72150365998413   -3.31966567536051
C        -0.99314795179008    0.72348132816393   -3.32250610924706
C         0.37709884256603    1.16976929154370   -3.33007545716288
C         1.22187493096565    0.00508395422820   -3.32634438064485
C         0.37778804364875   -1.16455727568630   -3.32035671968922
C        -1.76528967258200   -0.06975132812370    5.03208899483951
F        -0.71716369483397   -0.18454631811145    5.85702677236653
F        -2.55635145160324   -1.12474179635605    5.25704072691144
F        -2.43585416967994    1.01635114067898    5.41264551523760
C        -4.27422894985233    1.81378413840373    2.62652776906394
F        -5.18884792097651    0.86334352683529    2.84625470911159
F        -4.85866476386320    2.74749083969872    1.86435967039548
F        -4.00786360819603    2.38942818328747    3.79818060428993
C         4.80866355224600   -2.13215423703756    0.87182393194999
F         4.84363344581033   -2.86764520224788    1.98731652006173
F         5.19215611545973   -2.92708645078722   -0.13199708890910
F         5.74287225082402   -1.18429650304871    0.99968122357907
