64
-3991.5070842451796
C      -1.326349992414835      0.002800258641510      3.593388744039115
C      -0.397691954816220     -1.148623873121288      3.288458255702089
C       0.958319884030683     -0.702668927003706      3.250398665565894
C       0.948828281105103      0.716382891293294      3.261748551699752
C      -0.414569009500585      1.163746921865277      3.297198847107438
C       2.343083375761221     -2.563592375824666      0.562156540325451
C       3.444520578665235     -1.541107816975349      0.645039012135608
C       2.933122416130672     -0.694131932701516      1.785524671025955
C       1.924515098562508     -1.391577355542245      2.516299650563251
C       1.565842500036848     -2.542929765266525      1.768620911262259
C       3.168001045691993      1.394998246608595      0.538174889313737
C       2.305252401538003      2.537753857764968      0.546784700642401
C       1.555965488193065      2.534776100152481      1.768049466835505
C       1.914343235324594      1.377206873152589      2.518515466969113
C       2.920600286163126      0.666102901474261      1.790293374886853
C      -0.388998555439676      3.406836980008603      0.578290658937336
C      -1.752207882639011      2.964751228340778      0.576865912090641
C      -2.003067858069955      2.257928725326505      1.795958945560617
C      -0.754098516905870      2.256264362997221      2.564070966679071
C       0.232741181950586      2.945401384588310      1.785169280789052
C      -3.388331653107910      0.718933162231676      0.580326653531609
C      -3.385856907176745     -0.706324751600846      0.580268582000595
C      -2.805647193234115     -1.150323711740122      1.814659995789298
C      -2.665889341627282      0.005252928638435      2.772088427019765
C      -2.808796855432841      1.161182398732007      1.815686956842534
C      -1.742685450856414     -2.946855336047680      0.578762598425783
C      -0.379976828080595     -3.388123025434446      0.583973969244261
C       0.238418692136507     -2.940401462231010      1.787932824776335
C      -0.744231653719354     -2.247851388669946      2.565188055287146
C      -1.999953079002142     -2.245486546442106      1.801200812740011
C      -0.228876998385346     -2.958576228830779     -1.815057086131306
C       0.756145766727167     -2.241317196060946     -2.570288818875043
C       1.983451296020374     -2.243443193418021     -1.834322040131989
C       1.742883676173545     -2.973665361255833     -0.585574962800037
C       0.368582383950931     -3.382262978176075     -0.582127606161355
C       2.800801006555853     -1.154994509001645     -1.833216219822627
C       2.392821297650282      0.004052028296275     -2.572492274914634
C       2.765567883904129      1.156509115190774     -1.820319432610244
C       3.404807465423906      0.714567259274522     -0.615054921475723
C       3.705398390016605     -0.760341821401371     -0.693704954447685
C       1.946295790485264      2.275801331275768     -1.826239353827906
C       0.730627463110830      2.286619314295028     -2.586217481020781
C      -0.270971675686178      3.005684286497448     -1.838392874885529
C       0.336183053105899      3.423662926544159     -0.603935505388460
C       1.707072058551266      2.990677835935363     -0.613905023753227
C      -1.584663939305102      2.578654718397124     -1.839308553327230
C      -1.962140001779100      1.420827387470048     -2.608262296455515
C      -2.943743429434426      0.701328875496251     -1.831642625542858
C      -3.169330649239515      1.408614336149203     -0.603079234370695
C      -2.335137661589986      2.568684427590386     -0.613917054736936
C      -2.936890707534900     -0.682854711060164     -1.829048720203705
C      -1.947104417094354     -1.394450367923466     -2.598852063857452
C      -1.551313882679584     -2.541315861246433     -1.827393247722512
C      -2.318764309529418     -2.545448605678337     -0.611440905434015
C      -3.160289225680577     -1.392676276488114     -0.603961265550874
C      -0.997601278831361     -0.703059934634690     -3.326251489352032
C      -1.008740656870904      0.737648556250997     -3.334027574291684
C       0.369119695095050      1.169836509267303     -3.320819629240459
C       1.216193911417059      0.010543871929651     -3.307413837624959
C       0.370851218182143     -1.142008635725241     -3.317997543048242
Cl     -1.642304240910031     -0.017875548964122      5.384929696575441
Cl     -4.119293674789901      0.000646600971723      3.864823322028086
Cl      4.948802379141262     -2.380816167236802      1.227810634291781
Cl      5.424223643707034     -0.949381651556574     -1.254372450544858
