108
 energy: -324.476686696007 gnorm: 0.108659202569 xtb: 6.4.1 (a3dbbd7)
C        -1.32239264380745    0.00379791345572    3.56610494119842
C        -0.42727910671006   -1.29631409753342    3.60098084516876
C         1.05876078188042   -0.77776885186516    3.55586104288518
C         0.92897490204942    0.69208115015598    3.21406217027383
C        -0.34906019799257    1.11067832043389    3.23781609760893
C         2.33422522825900   -2.58855612918102    0.59865888465898
C         3.14995951987331   -1.42742163289908    0.61621201262591
C         2.90467405725143   -0.72878532802652    1.79509203572489
C         1.91992838931691   -1.45036007179446    2.53994472031091
C         1.56267314111809   -2.58676658449414    1.83023667999334
C         3.16183790351232    1.41647999293388    0.58549084756236
C         2.35535859824439    2.56843121658599    0.57545514249934
C         1.68260639127331    2.72375195049268    1.91134033084722
C         1.97130596174336    1.37674067575472    2.54928689626107
C         2.92061930159767    0.69289563671204    1.82704599338565
C        -0.35749686181552    3.38979214974953    0.59333657608487
C        -1.76205459939403    2.99659563220131    0.60533717140432
C        -1.99549088162740    2.30018306771969    1.78898161511414
C        -0.79894114023666    2.43295378315415    2.71315901768461
C         0.23501961112776    2.98794433521120    1.77476096670262
C        -3.41087510197432    0.69635437625193    0.57964287081576
C        -3.40059384195362   -0.70228797080312    0.60873196223950
C        -2.77311039349417   -1.14201040337130    1.79279390749229
C        -2.40377610635145    0.01103201011249    2.53739677657772
C        -2.77832364790308    1.14843289678385    1.81425984661793
C        -1.73786296872078   -3.04347333064480    0.58525522603171
C        -0.37896753735015   -3.49710787126155    0.59525480536473
C         0.21916665360970   -3.01280183565813    1.80297436975974
C        -0.75007440624636   -2.26695265950537    2.50019821713412
C        -1.95907663822433   -2.28325776745028    1.81393907050351
C        -0.23825916632964   -2.99756988690917   -1.77924795608808
C         0.81072852486191   -2.48147063816834   -2.75080597006455
C         1.96561642046732   -2.26754746300384   -1.79065143029745
C         1.73295238174365   -2.99285723446966   -0.58138108498007
C         0.36013556351677   -3.45010180402573   -0.59274793060392
C         2.75656546078751   -1.16461295218935   -1.82218361059600
C         2.39803806500260   -0.00679941746406   -2.56867876803180
C         2.76569819823246    1.16037162823599   -1.78674421703719
C         3.38500924801087    0.73370672640423   -0.59159154321166
C         3.59994776002030   -0.75825390297390   -0.63519249489901
C         1.96615768665842    2.28179083164385   -1.79152727850415
C         0.81696588238018    2.46714182110417   -2.75203522785768
C        -0.26293104261358    3.25363423448129   -1.92986863221453
C         0.38539437154889    3.44706768227319   -0.58302362731351
C         1.72307487045823    2.97572462719833   -0.59079845717647
C        -1.57849266206291    2.54430921165344   -1.77492474269645
C        -1.94747933799430    1.41875084756563   -2.53849452917208
C        -2.97106810250365    0.69972016767768   -1.81958223009487
C        -3.21265691984692    1.40619136491596   -0.60959693582077
C        -2.34216535726289    2.56561533116204   -0.60082479739114
C        -2.89669811195633   -0.69432553037141   -1.81183472983072
C        -1.91908406961762   -1.39246472380113   -2.48901580491090
C        -1.54283901651899   -2.55179454110409   -1.77279333812160
C        -2.30787475598022   -2.60185021385192   -0.57060366156553
C        -3.35721938300075   -1.51824224758161   -0.62845285739938
C        -1.07128362362162   -0.75519119252383   -3.53472850073204
C        -0.96786896181188    0.72746762138252   -3.24427796530368
C         0.35185382785500    1.12583652263906   -3.21863403877525
C         1.19845918448234    0.01423330319890   -3.23927316027941
C         0.42763074375048   -1.23449358090735   -3.63442493949004
C        -1.99095838244163    0.23074515111804    4.94675198801090
F        -1.07682812183301    0.58518405348210    5.83835672974450
F        -2.79566621124373   -0.79002038244780    5.25527999146247
F        -2.89034825662396    1.21051005635000    4.92869018228747
C        -0.69146078618377   -2.16997070845550    4.85151686972684
F        -0.50826490778062   -1.56515843727807    6.01958552828945
F        -1.92463133639521   -2.66695684373429    4.84191404968803
F         0.07130147338907   -3.26185451790953    4.83975851939591
C         1.76287703073988   -0.90576363952723    4.92714827000534
F         1.20533254380200   -0.13339294171321    5.84268616905076
F         1.88391508730286   -2.19015080505421    5.25882759534467
F         3.03087418250229   -0.47774440348121    4.84641490056108
C         5.06760041587398   -1.06877970928850   -0.89965084733557
F         5.47414832750334   -0.47030400810913   -2.01536654958404
F         5.24475362450498   -2.37966090677210   -1.02328408700344
F         5.81082982830532   -0.62745435921138    0.11301858701777
C         1.32409061283580    3.25306406995110   -3.97513376930454
F         1.95237606934135    4.36396786487544   -3.62777799264643
F         2.25495877182910    2.55055231123746   -4.63322366775330
F         0.33835175106410    3.44707464195076   -4.84646183222763
C        -0.56363329733364    4.63638790783344   -2.52907117699028
F         0.48073667200925    5.43532222710560   -2.50325198336107
F        -1.11589297141318    4.50538512686685   -3.73215118517337
F        -1.48181980279726    5.27566259083744   -1.78679777730018
C         2.40312177946229    3.84096450284733    2.68077724951818
F         3.70613873689309    3.58350356992869    2.72745181467100
F         2.20163894598038    5.00101103606712    2.05965216179443
F         1.98954586453367    3.94834903461592    3.92765530967069
C        -1.12392033983714    3.47516945871571    3.79990296304561
F        -1.39762395070765    4.64510259180121    3.21028548236009
F        -2.18577890449818    3.19404091004151    4.52114884120541
F        -0.12444449220123    3.61226867361834    4.65373596516962
C        -4.72494148196705   -2.12235895957487   -0.90139508392046
F        -4.70438389594775   -2.84034239879588   -2.01931107119559
F        -5.63571871177431   -1.16063115252186   -1.02608935594561
F        -5.07803718988798   -2.91421698815354    0.10978296279975
C        -1.82117395011195   -0.98425518999005   -4.85896592044660
F        -1.34242704155339   -0.23873142629152   -5.80264805759775
F        -3.10182500492269   -0.57501498173088   -4.79549659165982
F        -1.87800465309990   -2.31477389751732   -5.05912713018826
C         0.85023017133336   -1.44639761650056   -5.14790344839984
F         0.77064112214791   -0.40965496822899   -6.00026812013557
F         0.16893424666239   -2.42748259361565   -5.73426053382059
F         2.14282525914485   -1.68075169688751   -5.24654863183502
C         1.16430514053728   -3.72224555213032   -3.60752685310586
F         1.45881393785905   -4.78198509878036   -2.82369350780823
F         0.10508341084904   -4.10084382299301   -4.28156033965126
F         2.32735250130402   -3.56260457458640   -4.25016047295496
