63
 energy: -142.094931396070 gnorm: 0.000651183690 xtb: 6.4.1 (a3dbbd7)
C        -1.32484690919872    0.01035577148280    3.59868279325132
C        -0.38988148303119   -1.27420947559893    3.59896865878381
C         0.98635647435053   -0.72247472373455    3.29558766447886
C         0.96827916870830    0.69795822191429    3.26563958381476
C        -0.37717175314349    1.15131226796079    3.29884401472053
C         2.32857232986953   -2.57767002082424    0.57457951280025
C         3.16647683678651   -1.41331723813302    0.57908632966116
C         2.92155707158710   -0.68989941630912    1.80203151530306
C         1.93002405895800   -1.40160766241567    2.55865805658605
C         1.57271809225846   -2.58846095886839    1.79750848993266
C         3.17990609888313    1.42107127710805    0.57740176897980
C         2.33374941097328    2.58944611681205    0.58092985470107
C         1.57179862319215    2.57359705544346    1.80213372757569
C         1.94205074117758    1.40700240582158    2.54789180778129
C         2.93672158909389    0.69868671920357    1.80084012497986
C        -0.36863313759586    3.44894772261627    0.58464372958587
C        -1.74160445989266    3.01220671088586    0.58505122704989
C        -1.97812518099379    2.29019242437313    1.80871222955122
C        -0.73452266048128    2.25890910360977    2.56143503832270
C         0.24504109422699    2.98407130080061    1.80519074101124
C        -3.39606542980942    0.73155541088720    0.58085630383352
C        -3.37689892399186   -0.70275098835805    0.58207487785916
C        -2.74921583742516   -1.12635508962318    1.82604893654889
C        -2.39898869743363   -0.01061331691106    2.56266142478995
C        -2.77374642959244    1.16314010972307    1.80563366478504
C        -1.70460132376646   -3.00155671696683    0.58299201956338
C        -0.35151445403978   -3.45342449904508    0.57232753991533
C         0.25477477745580   -3.00021936808363    1.79953235662480
C        -0.74195928640804   -2.28973163157809    2.56342357645366
C        -1.91392976642564   -2.27770125423104    1.82765938152989
C        -0.24113711762697   -3.02436097873508   -1.83657299228027
C         0.80432302651467   -2.45002535631626   -2.76664429374019
C         1.99036451649724   -2.29487781671985   -1.83889537768020
C         1.74080599266055   -2.99277182441399   -0.62168529050714
C         0.37038102146621   -3.44129356485170   -0.62168171664689
C         2.77980502078421   -1.16624882696830   -1.82811779512862
C         2.41146723901737    0.01215450510079   -2.59003261547709
C         2.78023493929121    1.16722185185472   -1.82862521571865
C         3.39376735807398    0.72331089568469   -0.60277261342003
C         3.38853501462583   -0.71810397083870   -0.60133912658538
C         1.96691063413834    2.30309571625187   -1.82341125754891
C         0.74022299727748    2.30557828211211   -2.58004759245647
C        -0.25325404903733    3.02778731393457   -1.82372798309460
C         0.36188152012532    3.46228216845804   -0.59336919968205
C         1.73607378897918    3.01637837728643   -0.59951469356344
C        -1.57380210917540    2.60186005022516   -1.82614193039410
C        -1.95110602328038    1.43441231920640   -2.58378259789245
C        -2.94338489392237    0.71226222051500   -1.82480387840890
C        -3.17994545713626    1.42984418331837   -0.60454862125439
C        -2.33600243257096    2.59790216874697   -0.60048754669900
C        -2.92540067511516   -0.68425197950671   -1.82200035675012
C        -1.94742754700478   -1.40441111408297   -2.58277516634041
C        -1.54518823863445   -2.57041536158513   -1.81733953149445
C        -2.28958377416515   -2.56500188984499   -0.59080411443394
C        -3.14783267018309   -1.39383400579938   -0.58987747850925
C        -0.97514468031106   -0.70747273763653   -3.29846825064497
C        -0.99286927729173    0.74090834155042   -3.30507349684562
C         0.37280182216224    1.18389099857283   -3.30623823851164
C         1.21029488565619    0.00388573776744   -3.30167938913523
C         0.37548023782687   -1.14203156440537   -3.32676520149114
Cl       -2.11052587232350    0.29963101371183    5.20720085465618
Cl       -0.34718692730525   -2.10232299861665    5.21123945929294
Cl        1.19253572857766   -3.62924228762135   -4.11820847445020
