62
 energy: -137.550228229419 gnorm: 0.000148267744 xtb: 6.4.1 (a3dbbd7)
C        -1.30074791905736   -0.00694072466625    3.52074658207015
C        -0.37365640840660   -1.18058830972316    3.29867831068816
C         0.97578662460448   -0.72306144295989    3.26785979980488
C         0.96744527642053    0.71958407739521    3.27277517770760
C        -0.37361558415261    1.17241931589020    3.30304660406382
C         2.33568460113995   -2.58792284166731    0.58157505735598
C         3.18648917415484   -1.42333577679484    0.57864798838425
C         2.94485011893395   -0.69944483717258    1.80084501887123
C         1.94977161859121   -1.42380030323473    2.55919866266512
C         1.57653236416749   -2.58249133325684    1.80862754114827
C         3.18564682820718    1.40045581334709    0.57696890638325
C         2.32604011994226    2.56543103071644    0.58609708889364
C         1.59491495214563    2.56860413102225    1.80348838922555
C         1.93939230283102    1.42150585049040    2.53653187220157
C         2.94671720957160    0.68393754531787    1.79535406592923
C        -0.36605553339819    3.45705931198056    0.57418720300098
C        -1.71005178465508    2.98282165160405    0.57665614080357
C        -1.93790512335995    2.26704714636819    1.80834351555458
C        -0.74960178927342    2.28424104479657    2.57779737046188
C         0.26012577114978    3.20980917109693    1.92823224980847
C        -3.39850425187248    0.70651954046085    0.57022751205916
C        -3.40446137955557   -0.72697683404948    0.56881152750131
C        -2.78204149651321   -1.16203896580276    1.80147942160180
C        -2.42658594863297   -0.00927546328999    2.55074908902833
C        -2.76906698784002    1.13186953539990    1.80754690713277
C        -1.73744993172136   -3.00610780490131    0.58787541871908
C        -0.36059142441162   -3.44819366922508    0.58592352230633
C         0.25149401908684   -3.00915100693290    1.80816828112681
C        -0.73670201073101   -2.28573900883908    2.56455210228301
C        -1.97723922843391   -2.30058904199332    1.80365896702371
C        -0.24496661016297   -3.01078957146192   -1.82084726896427
C         0.74395511689520   -2.29176185471406   -2.57830538998875
C         1.97438454081315   -2.29244567453225   -1.82331579483519
C         1.74069328071264   -3.01253171264462   -0.59706334177397
C         0.36701856522732   -3.45425532910569   -0.59620911590644
C         2.79402354318027   -1.17379836344674   -1.82777777378351
C         2.41266369920644   -0.00297684890755   -2.58061408918909
C         2.79447443934095    1.15541264292559   -1.82655221384891
C         3.41351312665652    0.71021607686626   -0.60551269206277
C         3.41393683690777   -0.73110263763348   -0.60374582275340
C         1.97161450360901    2.28540614667884   -1.81402279475726
C         0.73980414217091    2.28109634582862   -2.57151370555318
C        -0.24912324206027    3.00183974598704   -1.82061739817097
C         0.36031578320300    3.44409735910690   -0.59384686491824
C         1.74808424511725    3.00580928069907   -0.60388008519384
C        -1.57365621866547    2.57362468047797   -1.82370605283647
C        -1.95269715033227    1.40921365293549   -2.58690916948074
C        -2.94698296362238    0.68620768913296   -1.83272276619654
C        -3.17351262545771    1.40318879945432   -0.60357504469623
C        -2.32289637197537    2.57212321793508   -0.60557610043954
C        -2.94807639240358   -0.70266170227604   -1.83552876095515
C        -1.95064880329930   -1.42182775723800   -2.58816750026918
C        -1.57155245938071   -2.58568239717747   -1.82348006851222
C        -2.32982357291082   -2.58546471315013   -0.60640034440029
C        -3.18134510350658   -1.42475999236068   -0.61014347992143
C        -0.99376990271942   -0.72554573314615   -3.31120063442860
C        -0.99436559800992    0.71557465473849   -3.31075629996372
C         0.37832559350791    1.16033721241526   -3.30644039332899
C         1.22444489376206   -0.00370760606566   -3.30772391207961
C         0.38027241304342   -1.16821883090433   -3.30816536663109
Cl       -1.92730856042357   -0.00167454171697    5.24010425194457
Cl        0.37786182529573    4.77123398838972    2.87463019282190
