63
 energy: -142.100573608796 gnorm: 0.000173034737 xtb: 6.4.1 (a3dbbd7)
C        -1.31134699067139    0.00559542478521    3.57893198531765
C        -0.37785503526433   -1.27403334811595    3.58584516928326
C         0.99959293897932   -0.72398428313113    3.28614527480002
C         0.98162389171501    0.69667720695627    3.25524414397448
C        -0.36593822867986    1.14860991940735    3.28577880563993
C         2.33875261829630   -2.58627652757827    0.56849731381989
C         3.17620303627038   -1.41480163804090    0.56691035679763
C         2.93206483830294   -0.69107738181953    1.79108177711904
C         1.94204107108996   -1.40339645135775    2.54876407516616
C         1.58401533580698   -2.59304955563805    1.79183207559536
C         3.19211476119675    1.42141655699849    0.57216045873320
C         2.34496164392156    2.58773464784574    0.57646190106260
C         1.58542161574884    2.57488611670387    1.80015999288697
C         1.95587996192055    1.40713760288942    2.54338213959926
C         2.94953326667718    0.69747867469429    1.79354788108693
C        -0.35595400414216    3.45125524054444    0.58403361564388
C        -1.72972217963037    3.01438748767661    0.58774530248044
C        -1.96666402064838    2.29702241105679    1.80234087533661
C        -0.72301826437040    2.25898400442305    2.55601803147691
C         0.25926447957230    2.98710288533878    1.80334877618384
C        -3.39803777502463    0.74306543838099    0.58018648937195
C        -3.60639034969076   -0.75161712450045    0.63306497774218
C        -2.75083155569597   -1.13294021501742    1.82775947629890
C        -2.37548609086674   -0.02261598752490    2.52981314317553
C        -2.75471448294255    1.15897611919971    1.77930956794930
C        -1.70636846887473   -3.00191025214796    0.57945368419428
C        -0.34608102433197   -3.44918240621802    0.56527950688563
C         0.26271962605301   -2.99799333898369    1.79220034643441
C        -0.73271797473697   -2.28577981990427    2.55053396787564
C        -1.91133125155425   -2.27757480920630    1.81541916215738
C        -0.23117066585640   -3.00767326528797   -1.84390371174405
C         0.75829390178128   -2.28696483812826   -2.60370600344188
C         1.98486317509496   -2.28807044699401   -1.84327861055128
C         1.75120144537776   -3.01664355037315   -0.61948905885414
C         0.38597751120408   -3.45967281644283   -0.61809806948154
C         2.79593855716017   -1.16386898550914   -1.83982870661045
C         2.41407341854487    0.00656548753901   -2.59283325750920
C         2.79351902182571    1.17007468406460   -1.83144442281845
C         3.40796831035266    0.72403043187621   -0.61038571289414
C         3.40612427190547   -0.71870362062114   -0.61051134134144
C         1.97443028549114    2.29500484385113   -1.82766272865975
C         0.74916784642404    2.29699795245789   -2.58356217772887
C        -0.24308593587900    3.01469068726100   -1.82457191254781
C         0.37233951166329    3.45660830196490   -0.59583966568222
C         1.74495014839002    3.01369922120117   -0.60178746257114
C        -1.56172459834948    2.58381804636705   -1.82076248846744
C        -1.94322629701146    1.41675332945245   -2.58174026777347
C        -2.93688804045038    0.70478236534263   -1.83619457455827
C        -3.16739051997430    1.42456601156144   -0.59553680683405
C        -2.32242384664115    2.58665775174754   -0.59820870778334
C        -2.91396508112690   -0.69095517639191   -1.81271964338771
C        -1.92668594666435   -1.40939479538256   -2.59025821176387
C        -1.54584019644988   -2.57072588787634   -1.83621907215727
C        -2.29884089939235   -2.54663419126206   -0.59878949986728
C        -3.14469324571814   -1.41120853511883   -0.61407119941372
C        -0.97893533182240   -0.71538261400712   -3.32449335803968
C        -0.98204088869070    0.72791948750891   -3.31983452463879
C         0.38370776623517    1.17241177208822   -3.31698839108034
C         1.23518396593156    0.00859284853605   -3.32311026875766
C         0.39112258697717   -1.16129163250365   -3.32879181327914
Cl       -2.12644303697814    0.28630599263981    5.17094694383052
Cl       -0.34375549293313   -2.09967438822706    5.20024397948311
Cl       -5.35372425042452   -1.16148469158813    0.96044436529095
