72
 energy: -177.477953118327 gnorm: 0.003263396800 xtb: 6.4.1 (a3dbbd7)
C        -1.29226387660734   -0.00000209537637    3.55899590215098
C        -0.36481500083415   -1.19729706021156    3.33983944943591
C         0.91437300046595   -0.73266211721372    3.21906579171654
C         0.91437308655993    0.73266734546730    3.21906767790432
C        -0.36481192135935    1.19729928229252    3.33984856036242
C         2.33088999685819   -2.59823169825903    0.55301391906119
C         3.16277401646229   -1.42339618583189    0.56317671297777
C         2.90472298676928   -0.71086616622786    1.80073267127886
C         1.95155963005627   -1.42449915691449    2.53218280491583
C         1.57340516064758   -2.60357433560136    1.77493173610298
C         3.16277135797159    1.42339587785251    0.56317604202097
C         2.33088814940007    2.59823152347233    0.55301344098502
C         1.57340501097601    2.60357675758367    1.77493171031145
C         1.95156076133331    1.42450278289898    2.53218574921357
C         2.90471759431931    0.71086644326081    1.80072956574062
C        -0.34510820523342    3.44843942205145    0.56574244483630
C        -1.71579641424837    2.99575806835708    0.57743418029492
C        -1.96386615320000    2.31927637079821    1.79754187935524
C        -0.79021037275933    2.51594152439414    2.75303501757044
C         0.27392647644488    3.04041387433879    1.78220240078890
C        -3.34674274274100    0.71684478033903    0.56354155351634
C        -3.34674386873402   -0.71684361608597    0.56354187309477
C        -2.71638414167144   -1.15310557481538    1.78968146659650
C        -2.38883967037918    0.00000044179194    2.54879662099937
C        -2.71638174403459    1.15310613363087    1.78968050506186
C        -1.71579810158924   -2.99575757023606    0.57743468199370
C        -0.34510978096031   -3.44843933725366    0.56574305367659
C         0.27392490491970   -3.04041099154460    1.78220156255818
C        -0.79021167481250   -2.51594008084040    2.75303671596560
C        -1.96386849591095   -2.31927627435378    1.79754256751416
C        -0.24266459684288   -3.01519660152238   -1.84983273421273
C         0.74631606455076   -2.29304035411822   -2.60750238073075
C         1.97506254838460   -2.29893010542044   -1.85153493868232
C         1.74370611800683   -3.02576095116207   -0.63230391112679
C         0.37555216339787   -3.46149675522181   -0.62587338743154
C         2.78416024670502   -1.16754497883426   -1.83797520342116
C         2.40622961024033   -0.00000073699899   -2.59223503465463
C         2.78416054082002    1.16754368444042   -1.83797555046049
C         3.38790259765156    0.72720094435508   -0.60899777330260
C         3.38790352590620   -0.72720214107943   -0.60899756781096
C         1.97506273218381    2.29892913078197   -1.85153520786036
C         0.74631658570537    2.29303988728722   -2.60750308914313
C        -0.24266394496862    3.01519680875459   -1.84983379048527
C         0.37555276752592    3.46149742106648   -0.62587434046038
C         1.74370565355033    3.02576083018701   -0.63230491112513
C        -1.56274437048287    2.58256507765387   -1.84078806531367
C        -1.94617100682773    1.41491527624407   -2.60362202091238
C        -2.93561033337553    0.69555541069731   -1.84725905650946
C        -3.15410710246663    1.41462770010391   -0.61724732642013
C        -2.31306516390741    2.57945288350544   -0.61846691693096
C        -2.93560988607997   -0.69555448265613   -1.84725843534699
C        -1.94617140231106   -1.41491498865430   -2.60362167253046
C        -1.56274512333975   -2.58256460057666   -1.84078731031534
C        -2.31306670729689   -2.57945240306874   -0.61846664190191
C        -3.15410802843032   -1.41462676624644   -0.61724701974232
C        -0.99079844964515   -0.72016314911777   -3.33217144205665
C        -0.99079826868997    0.72016288635017   -3.33217168812017
C         0.38168738881293    1.16621857232036   -3.33197930802787
C         1.22604133806030   -0.00000059544894   -3.32765887848594
C         0.38168708188813   -1.16621943278010   -3.33197916008876
C        -1.85523023076284   -0.00000632107948    4.99658989960770
F        -0.87823912765306   -0.00001216668635    5.90838067228139
F        -2.62107818731998   -1.06396237897376    5.23377076966914
F        -2.62107000471296    1.06395512585498    5.23377536575212
C        -1.07040075294403    3.63930398689937    3.77159805836094
F        -1.23465644016113    4.81717895338222    3.15004393888765
F        -2.16868139925019    3.44885647203161    4.49907917973139
F        -0.04614086440090    3.78763951756838    4.61999516589151
C        -1.07040024489555   -3.63930180619171    3.77160048649313
F        -1.23465181416234   -4.81717740507176    3.15004687876880
F        -0.04614117725665   -3.78763325393995    4.61999878082634
F        -2.16868249979846   -3.44885656239827    4.49907908746173
