72
 energy: -177.489118079396 gnorm: 0.002781136432 xtb: 6.4.1 (a3dbbd7)
C        -1.30765077304612   -0.00503183179182    3.55034121688061
C        -0.37519327143399   -1.18059278555451    3.29668120220316
C         0.97521628227510   -0.72821876814106    3.26536474975854
C         0.96225385130997    0.72138971403050    3.28291648063131
C        -0.36232314566432    1.17330231967681    3.31606060735380
C         2.32322064042057   -2.56590367459645    0.58072905118933
C         3.19056284319746   -1.43605886956421    0.57813876153007
C         3.16584864109338   -0.76236677956594    1.95091931561261
C         1.94725507068271   -1.43299301573194    2.57860027556787
C         1.56099381220135   -2.55472931126472    1.80540073019129
C         3.15914087355752    1.40590851407365    0.58284264814288
C         2.32291158840543    2.58479198289558    0.57033265134269
C         1.56891900347997    2.58439261516908    1.79336580928953
C         1.94847796649597    1.40384799855579    2.53599316904365
C         2.92670403923924    0.71305394333117    1.81058691365074
C        -0.36210980711240    3.46185987344091    0.58090660509378
C        -1.73174070146947    3.00677346990241    0.59501156634617
C        -1.96223129840407    2.29884432659173    1.83042661938132
C        -0.74664231246028    2.28688384656379    2.56667159377705
C         0.25078773850991    3.00427430946528    1.79306462914892
C        -3.40193298394410    0.71406579412736    0.58154021370167
C        -3.41689843287796   -0.72138132556484    0.57402693414206
C        -2.79180036335377   -1.15522316459577    1.79647524907579
C        -2.43730432207726    0.00553663944349    2.55592502378289
C        -2.77719152630339    1.14430992552393    1.82388311303895
C        -1.74957782639962   -2.99849397357904    0.58050111003935
C        -0.37466625137586   -3.43795642893554    0.58201553928920
C         0.23568460590087   -2.99388282394766    1.80382858376085
C        -0.74926911677620   -2.27890327486232    2.56013283317369
C        -1.99296033561860   -2.29226084124184    1.80347410368168
C        -0.25304707189813   -3.01939901543846   -1.82387455293990
C         0.73568611496585   -2.29812657471861   -2.57503356467671
C         1.96131630253360   -2.29909079475143   -1.81891475184082
C         1.73005861857299   -3.01047046034321   -0.59947283443784
C         0.35586757696613   -3.45693680754650   -0.59877577839366
C         2.77670596395985   -1.16995839502280   -1.81070478572916
C         2.40549024139989   -0.00699111458450   -2.56568254983847
C         2.79259753752999    1.15589804881492   -1.81582606387621
C         3.41241402478929    0.72168156110021   -0.59746092434730
C         3.39500457522983   -0.73449452368344   -0.58707286815981
C         1.96633095876225    2.27848778317796   -1.82638729177644
C         0.74475258988949    2.27408801946074   -2.58494087296421
C        -0.24637768041032    3.02085418583499   -1.83128018332919
C         0.36178695272162    3.45990355428690   -0.61225715326231
C         1.73346408959594    3.01002259026185   -0.60964993666266
C        -1.56432553929257    2.55790595974339   -1.81460028944971
C        -1.96776708798787    1.42832701318432   -2.56925122422758
C        -2.92435595575433    0.69880338731885   -1.82141143877708
C        -3.16912439569131    1.41024286835215   -0.58601537895320
C        -2.31929073351944    2.57568954751488   -0.58178410580841
C        -2.96068593356756   -0.69811823451296   -1.83531454308970
C        -1.94420830950304   -1.41309457994741   -2.58850723051067
C        -1.57389471660734   -2.57696273659197   -1.82513858677234
C        -2.33894027476875   -2.57765181629105   -0.61086389344122
C        -3.18777033766685   -1.41177484262350   -0.61679396646093
C        -0.99785588048271   -0.73941790807486   -3.32546824872143
C        -1.05768852094000    0.76641887137799   -3.56457538060496
C         0.39504179322582    1.16700855492292   -3.32710295469838
C         1.21176792492687    0.00325412569221   -3.28834107576807
C         0.36197798669958   -1.16216869309440   -3.28996161802524
C        -1.84610555777938   -0.01097064164734    4.98970573027793
F        -0.86158618433136   -0.00831687902141    5.89365233285655
F        -2.59755359696194   -1.08980415419179    5.23351763116767
F        -2.60657458922726    1.06032257532405    5.23793348349441
C        -1.49223774533207    1.08506846254376   -5.00465810161022
F        -0.69589723565518    0.50453612177739   -5.90806646167319
F        -2.73608845814972    0.66214601607691   -5.25200223063608
F        -1.46851261747039    2.39912524639550   -5.25050789903939
C         4.45372273404247   -1.04893334117520    2.73851037254661
F         4.67545524021493   -2.36068031584689    2.87560886863740
F         5.53009902342469   -0.53238617023060    2.13486948291717
F         4.40882062320371   -0.52928860827049    3.96925382756403
