63
 energy: -142.118533507859 gnorm: 0.000136505251 xtb: 6.4.1 (a3dbbd7)
C        -1.30584159619561   -0.00060147626304    3.56958841062549
C        -0.38422453622918   -1.16447908022933    3.27095016669390
C         0.97053045673115   -0.72323449106052    3.25323647239203
C         0.96475313862020    0.72474646442905    3.27045033463457
C        -0.37999427496803    1.16567624742175    3.28130619202700
C         2.32496369604327   -2.56068254140283    0.57407721022715
C         3.18936549278097   -1.42608699596311    0.57641107583357
C         3.14236122702819   -0.75344258494205    1.93193296956922
C         1.94361234314538   -1.42266656963858    2.56533865810557
C         1.56248439029904   -2.55264454913583    1.79891531468795
C         3.16062789314042    1.40876062731985    0.58788206132634
C         2.32019484740952    2.58864710461514    0.57659414414829
C         1.56369187914497    2.58397299381741    1.79393438119524
C         1.94007472086312    1.40556402923832    2.53297852270319
C         2.93787959818889    0.71149580161788    1.80518512905072
C        -0.37098333762983    3.44793085134493    0.57343525943027
C        -1.73959081094702    2.99824257134420    0.57089460557651
C        -1.97869675771445    2.27737167163059    1.79221171998609
C        -0.74500562309230    2.28287962205974    2.56094589957342
C         0.23901871972442    3.00109335338307    1.79941977964459
C        -3.36796292683399    0.72127027260460    0.57166208571397
C        -3.37083285474374   -0.71914644791021    0.57097475034454
C        -2.78827798337840   -1.16672405756986    1.79193993773909
C        -2.63558189716620    0.00021983523341    2.74810027103439
C        -2.78534765470917    1.16691584304459    1.79283487246543
C        -1.74365821979271   -2.99598022532023    0.57001106293359
C        -0.37250898754939   -3.43613158349241    0.57339600629768
C         0.23647978537107   -2.98751639531726    1.79877773637475
C        -0.74608161193256   -2.27673138607854    2.55607982362503
C        -1.98852675455251   -2.27952566552245    1.79074012479219
C        -0.25029251679532   -3.01094548691216   -1.83651176388691
C         0.74387406857921   -2.29302961917161   -2.59110571702075
C         1.96711365758388   -2.29277715879878   -1.82721062213036
C         1.73211560825390   -3.00377475596504   -0.60565570063921
C         0.35923935395700   -3.44760610296280   -0.60492401890540
C         2.78103204187522   -1.16606382437066   -1.81737348981528
C         2.40618416464180   -0.00074701110434   -2.57498390813639
C         2.78976321402300    1.16571987857390   -1.81744294219230
C         3.40699085789343    0.72676273820040   -0.60258088710553
C         3.39350333386218   -0.72683580673634   -0.59194161510931
C         1.97112635155824    2.29523660753223   -1.82862233787967
C         0.74881897503842    2.29086919218400   -2.58649856001463
C        -0.24693286943254    3.01286474806107   -1.83569923414339
C         0.36104048143659    3.45875684677148   -0.60561893745973
C         1.73370942752042    3.01630120127382   -0.60522437084324
C        -1.56676139499184    2.58499398976262   -1.84174233097921
C        -1.94346917084276    1.41708121771010   -2.60079166864330
C        -2.93314116325991    0.69535859817250   -1.84337878332247
C        -3.16307587940305    1.41574052183333   -0.61728879054960
C        -2.32620226237394    2.58020397403898   -0.61735485610418
C        -2.93653739242708   -0.69340849811011   -1.84540972135947
C        -1.94644582586951   -1.41577416860184   -2.60194634951126
C        -1.57190356576976   -2.58367798433322   -1.84348011479814
C        -2.33175240848065   -2.57905654290905   -0.61997771835240
C        -3.16614380846881   -1.41418827393792   -0.61848708246660
C        -0.98556420284788   -0.72114958202632   -3.32622819315366
C        -0.98403699541902    0.72260531302206   -3.32546918753692
C         0.38479626884813    1.16664404839301   -3.32058926053213
C         1.23086139303371   -0.00020304251335   -3.31258738203800
C         0.38289249238755   -1.16663436281833   -3.31949915990325
Cl       -1.60711028451930   -0.01195296361687    5.35568128704680
Cl       -4.09969587147364    0.00186656329803    3.81508027598332
Cl        4.67202696279560   -1.11231173865510    2.88211976593701
