156
 energy: -518.475022522892 gnorm: 0.412820360043 xtb: 6.4.1 (a3dbbd7)
C        -1.29022625384628    0.01233330031301    3.47573965516225
C        -0.40622566895184   -1.24158446930468    3.48516282970011
C         1.05151315250953   -0.76749112671974    3.48740592690862
C         1.03153000611275    0.76804605199281    3.48520184632862
C        -0.37900386705060    1.15873058264880    3.23117493401134
C         2.29616244164152   -2.59006034991870    0.55920021707630
C         3.31765127252218   -1.50737809248539    0.62820701216855
C         2.87166694893208   -0.71006470432991    1.81349149231580
C         1.94617883723652   -1.39825554560383    2.50354723670231
C         1.64284349965846   -2.70974336500146    1.88911063751488
C         3.31495445941768    1.42871157104991    0.63921071658133
C         2.38968858704131    2.60636343884163    0.64679340952073
C         1.56072058314930    2.49726204028820    1.83346817640142
C         1.92952817311403    1.38578009677765    2.50531319434004
C         2.94464409277500    0.67131393724031    1.86649728805919
C        -0.44455565999938    3.60249956310488    0.66779693078715
C        -1.75709690798752    2.94010551711008    0.57238515711318
C        -2.07533353043608    2.39136723080649    1.91322702841743
C        -0.74305659995909    2.22304348123838    2.55416203544725
C         0.24652786207787    3.14448015870107    1.94037386006994
C        -3.57528051806222    0.73550308445711    0.61106597681868
C        -3.37243106737707   -0.74411704743525    0.54703971497084
C        -2.92964146294111   -1.22154343366889    1.89144812370605
C        -2.38114556069131    0.02532771071769    2.48602107709461
C        -2.73808162135160    1.09015254809972    1.79229033538514
C        -1.79884626658296   -3.15289768484658    0.60824917606065
C        -0.33506239921234   -3.45591982713141    0.58141834895925
C         0.21349917167930   -3.01234622275564    1.76792464464824
C        -0.75259754276898   -2.26585676445388    2.47235718806670
C        -1.91823023386993   -2.27185192558932    1.79822297507056
C        -0.23098499990596   -3.02899405327258   -1.81813428904579
C         0.69114835150988   -2.31453351272786   -2.51318246076502
C         2.03877065139427   -2.42288558964213   -1.89278082563696
C         1.71503716104501   -3.01478307682495   -0.55795954301362
C         0.36907381599012   -3.50319563279705   -0.59949194099392
C         2.72928748132780   -1.14509848932303   -1.74847143750556
C         2.51372751388642   -0.02566604077218   -2.71031696429308
C         2.93262066487471    1.23140272736591   -1.94122554436159
C         3.57620977628700    0.70305651608430   -0.66748290339741
C         3.29147465471611   -0.74587464373205   -0.62683089296878
C         1.89732034164113    2.25640040650822   -1.83527642256699
C         0.70480221087751    2.24242859618179   -2.49401330956333
C        -0.24316608394792    2.98494253966691   -1.84813850798949
C         0.34109946645364    3.57582322521077   -0.62692185721153
C         1.74636485725766    3.07089416571785   -0.64563420442011
C        -1.66649176948751    2.69751498100901   -1.91636231701219
C        -1.94710864639759    1.38774728930656   -2.57746856831262
C        -2.91331546325364    0.72325564855600   -1.78460885333483
C        -3.14339067891772    1.39985720357416   -0.63559331530955
C        -2.30530012085604    2.54319494098903   -0.57184302971454
C        -3.07693821065972   -0.73411827062998   -1.90465970620915
C        -1.92691834908079   -1.42373258813047   -2.57425114178669
C        -1.59657347951107   -2.59389007452812   -1.81470602355336
C        -2.30595828380823   -2.56724254544109   -0.64606857056231
C        -3.13481552604537   -1.41208353611273   -0.57465764632592
C        -1.03092958934471   -0.72007310715703   -3.27806028371977
C        -1.03449097922747    0.70518752904898   -3.28478283480410
C         0.36434567199066    1.20187047884571   -3.47145479223591
C         1.18023296913959   -0.00795005764189   -3.28367249657893
C         0.37131122207521   -1.21806151752087   -3.43738412314512
C        -1.92912202547758    0.15937029563327    4.86130798189566
F        -1.16882268943046    0.49528029865034    5.83971111913205
F        -2.77146850976842   -0.77570760703166    5.17079528634935
F        -2.70675212450308    1.21449437327557    4.94342679908276
C        -0.65484400091321   -1.95078722546295    4.82190903979418
F        -0.58455926461504   -1.38675838846060    5.97983902105410
F        -1.86120095681898   -2.49840849454143    4.90065820966527
F        -0.00165565767423   -3.07609054258707    4.97430096074138
C         1.67795212674806   -1.17238664190238    4.83126464925047
F         1.28393336922842   -0.77352189506227    5.99489009033928
F         1.80558097305441   -2.43611484401696    5.07527563542643
F         2.99093034777420   -0.90900525865411    4.88150537458963
C         1.48456951882213    1.25349197070012    4.85975318567688
F         0.68249159173236    1.07770661301993    5.84723512511460
F         2.75516899894748    1.00858961843674    5.08675042400670
F         1.51372483163693    2.54190407955434    4.97928745134514
C         4.69407570565043   -2.08561295739366    0.84921098084009
F         4.85341669416399   -2.74880483556107    1.94579121890436
F         5.02384654579359   -2.86810748506797   -0.15106570481852
F         5.59828101407140   -1.17660163213824    1.06863561905132
C         2.26103376320928   -3.85493076235704    2.67386056736437
F         3.50448523402065   -3.70315281376065    2.98091003029563
F         2.12726597643662   -4.98012500049960    1.98886164654745
F         1.69076039626854   -4.04309944455709    3.82519258732260
C         4.69264052903112    1.89024876245919    0.85229144638941
F         4.83981152210000    2.74183532317071    2.53562176165902
F         5.44150046293432    2.80815747199920    0.43625873689749
F         5.48053536251476    1.18623959282815    1.58786206085731
C         3.21545162101306    3.89245725669810    0.64874588327931
F         4.09365995989679    3.78175966870285    2.51236082256855
F         4.45030213668307    4.36011899953580    0.40468972385722
F         2.93349362602604    4.89427763076199    1.46702401217124
C        -0.76278058769336    5.14948463583777    0.84854652698529
F        -1.61554108714250    5.63595395994926    1.78591927279322
F        -1.63898609019531    5.64486255976391   -0.02453212953159
F         0.14798976656870    6.00059068891067    1.25761703039972
C        -2.97282017954355    3.31481166458297    2.70638304810955
F        -2.54345453053178    4.47656161310754    3.00522410577357
F        -4.06987220172768    3.59984946656336    2.05895198490543
F        -3.21311986126752    2.85315184843395    3.89615454663599
C         0.45040559457084    4.35176435062800    2.84825812305705
F        -0.58405844880979    4.95968371750925    3.29130429434088
F         1.35748134541912    5.18786899299009    2.47438404442745
F         0.93328082282586    4.07291812198365    4.01218549110245
C        -5.02506959443949    1.09435718712147    0.82044760897141
F        -5.53430081428686    0.68601562274793    1.93685373816141
F        -5.75352644642963    0.60234247629938   -0.15878637796858
F        -5.22934001153844    2.38555534694091    0.84888871390362
C        -4.09735019877253   -1.75563466862348    2.69489693261416
F        -5.00936239475384   -0.88958268382239    2.99273181087920
F        -4.71446512386767   -2.71153795225269    2.04850123186036
F        -3.73058555008204   -2.21544081246374    3.85737083170359
C        -2.52880851080984   -4.45348433170741    0.87339697800994
F        -2.08853095555792   -4.98882170516573    2.00016671891845
F        -2.32282326596286   -5.28249353340664   -0.13881241444816
F        -3.82257646411400   -4.27743714177969    0.94003181888553
C         2.88850021349203   -3.42172814553909   -2.64723962133347
F         2.22221857025174   -4.56260586618736   -2.74167826149762
F         3.18203291696899   -3.05432342397255   -3.85115393478687
F         4.03660569129583   -3.60704656424815   -2.03715891450668
C         3.52601187137635   -0.15979925645321   -3.87855984489750
F         4.71774166694340   -0.56116160520393   -3.52768152454525
F         3.32513640030878   -1.15682081390794   -4.67711499480091
F         3.40642185059581    0.77414458584887   -4.78361569257204
C         4.00959584722368    1.91657483956298   -2.78143567908677
F         5.09684653907086    1.33678843392302   -3.12851966544478
F         3.56893986299648    2.47435116849210   -3.88896727621667
F         4.53651588078332    2.99182772149930   -2.32403680494684
C         5.12807699714434    0.82123779799490   -0.91189204750349
F         5.67120393738982   -0.03988017433962   -1.82459142541724
F         5.68939206655522    1.93166735005213   -1.26217688784673
F         5.99055834351232    0.37293363604278   -0.05856898006761
C         0.35799934529705    5.05690077534587   -0.80465256065220
F         1.11606509281589    5.45141266443315   -2.55106200263849
F        -0.48959908163550    5.65748194728388   -1.54267709637995
F         1.03226672406752    6.05748771063082   -0.43626921990251
C         2.70450586732475    4.26885944258695   -0.63792244738348
F         2.32642812948750    5.05363934115077   -2.50325483122280
F         3.73731787249647    4.36235042818540   -1.43160071681040
F         2.77991970259293    5.58315336108829   -0.38434063924500
C        -2.37262011267198    3.77142738141491   -2.69174687974620
F        -3.65976518955320    3.49799363702669   -2.78762242290763
F        -1.83284530992492    3.88977255191612   -3.88580799227587
F        -2.30484261594402    4.92953046985299   -2.09288044539678
C        -4.32636315481398   -1.04277752337868   -2.68215983373772
F        -4.47504557700568   -2.35716000789474   -2.77301551367564
F        -4.22970065183515   -0.52047169255919   -3.89697892115924
F        -5.37955891334322   -0.53602679918030   -2.08207625003759
C         0.53665872721441    1.78469609045092   -4.86026178724644
F         0.19919600818205    0.98697760359919   -5.81843742075550
F        -0.25327839156570    2.82122941313556   -5.04272660978493
F         1.76099402024018    2.17120915528017   -5.08591229353908
C         0.50798609100984   -1.78951429450649   -4.85728134100064
F         0.16101639881786   -0.98335315874573   -5.80422862539708
F        -0.30144119275072   -2.82556291318235   -5.00874433227199
F         1.69093091868784   -2.18491717993701   -5.16613182582885
