62
 energy: -137.582502317313 gnorm: 0.000099986360 xtb: 6.4.1 (a3dbbd7)
C        -1.30524132879597    0.00000000000538    3.57807329023422
C        -0.38198622120159   -1.16615737488772    3.28622995044209
C         0.97316446785684   -0.71953336628746    3.26852105894251
C         0.97316446785530    0.71953336630216    3.26852105894473
C        -0.38198622120459    1.16615737490379    3.28622995045274
C         2.33525790565848   -2.58178581715533    0.58265918378867
C         3.18402429064640   -1.41551052449968    0.58305164633927
C         2.94575551469093   -0.69331830539435    1.80727245276214
C         1.94633616722705   -1.41428833030776    2.55691587181014
C         1.57537284635923   -2.57710002453835    1.80571263196464
C         3.18402429064568    1.41551052450295    0.58305164633618
C         2.33525790565840    2.58178581715875    0.58265918378237
C         1.57537284635929    2.57710002454614    1.80571263195897
C         1.94633616722623    1.41428833031814    2.55691587180842
C         2.94575551468950    0.69331830540176    1.80727245276124
C        -0.36286725388684    3.43716117593932    0.57905462418204
C        -1.73307079475598    2.99275061625332    0.57524951534827
C        -1.97752320629156    2.27496221823572    1.79457083857807
C        -0.73661625909686    2.27496497778529    2.56523814188962
C         0.24797249911112    2.99276091828423    1.80557303834060
C        -3.36590164017822    0.71953732333088    0.57375248902312
C        -3.36590164017888   -0.71953732332215    0.57375248902510
C        -2.78105190250946   -1.16617827543313    1.79633080427055
C        -2.63331800734743    0.00000000000824    2.75326019131418
C        -2.78105190250706    1.16617827544612    1.79633080426590
C        -1.73307079475815   -2.99275061624643    0.57524951535621
C        -0.36286725388906   -3.43716117593443    0.57905462419038
C         0.24797249911082   -2.99276091827599    1.80557303834608
C        -0.73661625909661   -2.27496497777287    2.56523814188986
C        -1.97752320629363   -2.27496221822376    1.79457083858313
C        -0.24045690066217   -3.00743782548085   -1.83034246730529
C         0.75231661586805   -2.28840993805800   -2.58424128273324
C         1.97824017738855   -2.28845527885670   -1.82288383798471
C         1.74258918722144   -3.00745695556584   -0.59875134393160
C         0.36899288245124   -3.44813425118672   -0.59934302533638
C         2.79566620008723   -1.16591822783908   -1.82325695863853
C         2.41697359109874   -0.00000000000271   -2.58108531976838
C         2.79566620008779    1.16591822783556   -1.82325695864148
C         3.40959680691412    0.72110795434846   -0.59778286565664
C         3.40959680691433   -0.72110795434857   -0.59778286565546
C         1.97824017738961    2.28845527885345   -1.82288383799084
C         0.75231661586926    2.28840993805322   -2.58424128273948
C        -0.24045690066036    3.00743782547884   -1.83034246731341
C         0.36899288245285    3.44813425118749   -0.59934302534530
C         1.74258918722258    3.00745695556589   -0.59875134393955
C        -1.56217286029713    2.58178679356912   -1.83784975797872
C        -1.93879975252934    1.41553008402889   -2.59849355392507
C        -2.93052386427469    0.69331652856981   -1.84222173469045
C        -3.15943698990261    1.41427069975303   -0.61403881020582
C        -2.32163160591617    2.57707956787764   -0.61452432163280
C        -2.93052386427455   -0.69331652856949   -1.84222173468868
C        -1.93879975252999   -1.41553008403179   -2.59849355392122
C        -1.56217286029877   -2.58178679357009   -1.83784975797151
C        -2.32163160591823   -2.57707956787401   -0.61452432162573
C        -3.15943698990344   -1.41427069974849   -0.61403881020168
C        -0.98033776527170   -0.72109715720207   -3.32415755726590
C        -0.98033776527144    0.72109715719620   -3.32415755726739
C         0.39032106020777    1.16579648770428   -3.31706046827290
C         1.23757908177170   -0.00000000000348   -3.31355725238661
C         0.39032106020722   -1.16579648771087   -3.31706046826971
Cl       -1.60949318930206   -0.00000000015797    5.36443419001363
Cl       -4.09957109178614    0.00000000004209    3.81802953081684
