62
 energy: -137.550025858457 gnorm: 0.000098685512 xtb: 6.4.1 (a3dbbd7)
C        -1.30308481994461    0.00280487663165    3.53555169882368
C        -0.37836193515077   -1.17364850136099    3.31141391429043
C         0.97419408196633   -0.72169336478300    3.27803942164726
C         0.97253730263195    0.72245117813792    3.28029606236612
C        -0.37193462292149    1.17548259451047    3.31108912746669
C         2.32113473745288   -2.57697531397958    0.57898515205234
C         3.18897844482462   -1.40816774660365    0.59013665251069
C         2.94296446665425   -0.69367486130857    1.80027813514461
C         1.94209702524728   -1.41382408879661    2.55676256486076
C         1.56728141256307   -2.57033641535628    1.80448981156357
C         3.18039263814745    1.42933831856689    0.58724390699894
C         2.33802085218971    2.59732474116051    0.58858997987186
C         1.57654498280672    2.58746579686498    1.81338508689124
C         1.95000743567444    1.41760745143173    2.56247697389294
C         2.93647859992192    0.70190600185954    1.81111658794684
C        -0.35998910474202    3.45172165691284    0.58676675233775
C        -1.73329136706414    3.00511805422504    0.59278037016521
C        -1.96697749564019    2.29612606587214    1.81263678006845
C        -0.73720914997293    2.28135474227232    2.56901071732129
C         0.25447077208328    3.00303504178374    1.81025647608025
C        -3.40255613194090    0.72163441113779    0.57782409327804
C        -3.40624011290207   -0.71486897610845    0.57830704589234
C        -2.78223933000052   -1.14804703657718    1.81060394087681
C        -2.42485994766252    0.00498843440542    2.55726500602955
C        -2.77406378105446    1.15092401954267    1.81223931480304
C        -1.74364681279132   -2.99746971375622    0.59837856081821
C        -0.36571256194158   -3.43783446585627    0.59603567299127
C         0.24126829660760   -2.99587626751984    1.81264668850149
C        -0.74429831310675   -2.27607409501337    2.57471163198310
C        -1.98626141622302   -2.29348634010428    1.81534852239668
C        -0.23876275469131   -2.98079557085982   -1.81273767448542
C         0.73572702171058   -2.29516455603258   -2.58348799119142
C         2.09904729790198   -2.45245058295317   -1.94374078045659
C         1.74051717441302   -3.01869142466388   -0.58710486084221
C         0.37341841449391   -3.42585557649925   -0.58281349710907
C         2.79437577081878   -1.14243897048492   -1.81804073389429
C         2.40206590302267   -0.00605229692163   -2.55621127048920
C         2.78511688834674    1.17865792966095   -1.81270612267675
C         3.39940155604029    0.73591060118905   -0.59197316042578
C         3.38645428640325   -0.71160797603706   -0.60211178145957
C         1.97195628683580    2.29737658762188   -1.81391618809883
C         0.73766143065156    2.29611023756888   -2.57266991320314
C        -0.24397286269995    3.01184488309571   -1.82142243004937
C         0.36764491188777    3.45982356476428   -0.59226162896617
C         1.74237920617925    3.02241654863752   -0.59196006141701
C        -1.57417806975313    2.58386598768980   -1.81491122112765
C        -1.95207681278098    1.41657170545417   -2.57663006620846
C        -2.95070980333210    0.69644764622238   -1.82471418352474
C        -3.17792163007393    1.41421588528347   -0.59803167985295
C        -2.32337533483713    2.58423581466456   -0.59878865864707
C        -2.95694093319753   -0.69248967894041   -1.82643362716990
C        -1.95797593043277   -1.41353740732919   -2.57625337142936
C        -1.57521488427192   -2.57109524156834   -1.81289470092589
C        -2.32863629163200   -2.57268325500991   -0.59541227878832
C        -3.18650422015907   -1.41054700407170   -0.59945525801639
C        -0.99622152911033   -0.72015343809044   -3.29377382655295
C        -0.99567743576091    0.72060765299509   -3.29812534759051
C         0.37945104859127    1.16158469141779   -3.30048553553434
C         1.21955187850760    0.00421235957358   -3.30748853729521
C         0.37506976240627   -1.16682031859491   -3.29329362298788
Cl       -1.94680758775620    0.00893698776971    5.25001952251058
Cl        3.12511582792487   -3.63482962137492   -2.89359054000469
