70
-174.050919
C       0.157125333020731     -0.083612346517003     -3.777716737215321
C       0.238643795416901      1.438963747571990     -3.456023302274309
C      -1.075862628817960      1.780380962820675     -2.790482619723344
C      -1.179330963764597     -0.502274695960076     -3.224389661535739
C      -1.925479389616175      0.629503848072340     -2.778164329911867
C      -1.422611364853716     -1.720828513167646     -2.682140064526688
C      -0.358604540724030     -2.766676268687548     -2.494523708945813
C       1.197084617476102     -0.879597147262088     -3.045445946248308
C       0.950176397257294     -2.060902817989999     -2.471448317245432
C       2.594590017433030     -0.389491492480364     -2.718544883791839
C       1.308287929806124      1.676888560309033     -2.449052044121970
C       2.426634977119520      0.978696651140944     -2.189515100039119
C       1.166410497916527      2.714019598751035     -1.426499950929675
C      -1.209157217538347      2.719277817574283     -1.816071717605008
C      -0.064904136211900      3.525760050776793     -1.256164064639776
C      -2.217914363029298      2.567597227234772     -0.801483512570639
C      -2.908461162115454      0.491616456756770     -1.821238883658880
C      -3.069084362835702      1.482628471291312     -0.801875918711080
C      -2.426377063698420     -1.864544476278310     -1.664545998510107
C      -3.173923451021687     -0.781171990128048     -1.242493107318630
C      -0.672143533750097     -3.264125120937526     -1.112679738806667
C      -1.969168166844542     -2.804590705806372     -0.694928370721627
C       0.287595012156638     -3.477293552920232     -0.189180294639262
C       2.157574396728669     -2.574497171441936     -1.711192516375329
C       2.913385377426636     -1.286433183574738     -1.557744483657937
C       1.776866470829574     -3.330429254683127     -0.411941173315621
C       3.326413085849547     -0.780764369437688     -0.397338870728549
C       3.225886833083368      1.645344910509785     -1.095321507101254
C       2.182631047458868      2.601823750921443     -0.553655842435789
C       3.731879012908418      0.631653280414623     -0.057991645439159
C       2.068163761846103      3.091996634029446      0.840996739659803
C      -0.359870011072046      3.529908682690928      0.226321331799853
C      -1.688038688130727      3.046627452241738      0.443183461602268
C       0.604007695655096      3.312761636573346      1.157209124091047
C      -2.043452857004039      2.399481596223611      1.615476804306976
C      -3.448675471660910      0.823561392678501      0.415131496964926
C      -3.518706003165496     -0.591321142918706      0.140881891066644
C      -2.936399364312264      1.272420050559333      1.616045263629763
C      -2.285968059032891     -2.622094948078344      0.638770341833463
C      -3.073508557405590     -1.502322679625931      1.079546690679064
C      -0.022837107606124     -3.262997339837137      1.204620647105561
C      -1.278521577902811     -2.861041401841376      1.622389136771936
C       2.154916170015115     -2.562525829547928      0.826725105591376
C       2.930592759582140     -1.452373840637694      0.841822409873946
C       1.130461649432841     -2.706333607951807      1.826311357844169
C       3.090338823495335      0.835216269822966      1.291995392458501
C       2.378355050735543      1.904350162089588      1.714614782126239
C       2.783012323204908     -0.459210031078338      1.846954289487873
C       0.252516889311915      2.602109982297332      2.351830921779336
C      -1.039707111669049      2.168555961287757      2.598477149359997
C       1.338562872549022      1.740203445943701      2.692471749750685
C      -2.489621013804797      0.323378305694088      2.600631206423331
C      -2.555717627847223     -1.033878384662760      2.340000141787515
C      -1.442100811757450     -1.887612872562683      2.667331255860570
C      -1.314393078723138      0.891947655464004      3.207268060352381
C       0.981691112358165     -1.758687820659290      2.825326735174158
C       1.836265160716595     -0.614300075748567      2.836044308979502
C       1.078084764481123      0.510554870913747      3.267788282172399
C      -0.319417254889878     -1.346984941888509      3.266430446582264
C      -0.257241393873040      0.068532888471550      3.542466944523925
Cl      0.313771140232699     -0.488672112249931     -5.515440901674517
Cl     -0.370915402856230     -4.085961983200971     -3.720358430402657
Cl      0.531887873328506      2.498292165828622     -4.865295289110268
Cl      0.107615545088887      5.160897872196526     -1.980413792227210
Cl      2.489793374357428     -4.988767278873207     -0.345728051306060
Cl      3.032006697037427     -3.649945947103698     -2.880886220520954
Cl      3.128680892625104      4.520148322263959      1.096081854025842
Cl      5.512451825771455      0.677868997549776      0.180707134263762
Cl      3.772418695293650     -0.382919044455819     -4.069957039155427
Cl      4.583109355785667      2.612217666160024     -1.793328330525741
