72
 energy: -177.487953369862 gnorm: 0.001399889818 xtb: 6.4.1 (a3dbbd7)
C        -1.30552742889178   -0.00717090300140    3.51409636139370
C        -0.36931613505763   -1.18524032841635    3.28654226768174
C         0.97924768961998   -0.72054144016329    3.23422860773555
C         0.96581382383619    0.72136219370290    3.23720645240881
C        -0.37257958360523    1.17766716745810    3.27490716030905
C         2.35183131168223   -2.59546985113047    0.55345469491553
C         3.15986641978214   -1.42329060659897    0.55467792428841
C         2.91581771432834   -0.70050196264666    1.78031931462086
C         1.97060295054629   -1.41834863872992    2.55878971569454
C         1.70615308745178   -2.77796472859279    1.92521164211940
C         3.17534885640668    1.40557523744958    0.55740930619817
C         2.31946975460913    2.57547453186110    0.56589089972559
C         1.59899278855732    2.58456779207167    1.78360655224925
C         1.93871035770217    1.42888804179921    2.51120104547020
C         2.93808046131943    0.69335096647827    1.77449074865936
C        -0.37601183211340    3.46690633963842    0.55040413667353
C        -1.71702820401298    2.98677857564236    0.55785000184824
C        -1.94994396512081    2.27696441091589    1.79044952678892
C        -0.76049555554177    2.28767139978622    2.55905012671976
C         0.25425491930603    3.23575200805278    1.91812227628006
C        -3.40789451551572    0.71265255141509    0.55048708923219
C        -3.41550105506177   -0.72062783367067    0.54874341727456
C        -2.78930286029018   -1.15436852290807    1.78125872667509
C        -2.44120942231049   -0.00343769161392    2.53028564989643
C        -2.77805218824501    1.13821974003559    1.78822536026974
C        -1.74492041272945   -2.99209690672358    0.57014503666646
C        -0.35867686769118   -3.42683070952140    0.57733787743704
C         0.23120428432835   -3.02133118972216    1.79095177083784
C        -0.73000784687662   -2.28170239924337    2.52894553841405
C        -1.98375410311327   -2.29089715705372    1.78061097156209
C        -0.24539750388158   -3.00844903245302   -1.82833727925694
C         0.74228994304982   -2.28457551258256   -2.58948853046528
C         1.96987097501898   -2.28190407068603   -1.83666650023324
C         1.74189089075412   -3.00281243327787   -0.61154376361960
C         0.36428735763726   -3.46164834742064   -0.61918933641162
C         2.79277812311219   -1.16352338739992   -1.84763148671924
C         2.41193384115235    0.00629807597585   -2.60292365837374
C         2.79303302116637    1.16580840605797   -1.84932727492283
C         3.40435084523948    0.71726371573143   -0.62662415042300
C         3.40393064130978   -0.72430582532676   -0.62738349518720
C         1.96726557117917    2.29542538347207   -1.83589789859070
C         0.73567499803855    2.28689353004372   -2.59173946951901
C        -0.25456389424549    3.00644877987461   -1.84099961511451
C         0.35448880331310    3.45086229261868   -0.61598055782462
C         1.74311621320002    3.01845671086289   -0.62710037246433
C        -1.57862302759881    2.57571537928807   -1.84287899108705
C        -1.95742028756425    1.41227505829811   -2.60661781951655
C        -2.95325393232270    0.68942114063312   -1.85312940012992
C        -3.18062639543107    1.40818332016387   -0.62369928287099
C        -2.32923636743470    2.57489059048465   -0.62602963434306
C        -2.95484850131259   -0.69824335946908   -1.85559390366566
C        -1.95402310548507   -1.41982531698561   -2.60416565997755
C        -1.57820510160595   -2.58107031012867   -1.83924766528706
C        -2.33768321043374   -2.57870800971454   -0.62485202538197
C        -3.19103269680337   -1.41915649332818   -0.62929673597172
C        -0.99673419440921   -0.72274529606532   -3.32829402865148
C        -0.99814758316077    0.71789487393230   -3.32819456924820
C         0.37466627373964    1.16435245850861   -3.32536625921854
C         1.22164784394238    0.00191696834818   -3.32588450537056
C         0.37763632576177   -1.16396985614818   -3.32216825080664
C        -1.83436501892610    0.00714936704019    4.95930218291062
F        -0.84467278062070    0.01646650717604    5.85644437918558
F        -2.58975270486787   -1.06393692369639    5.21870608252727
F        -2.58759172261455    1.08534258691466    5.19542796724370
C         2.38623843255512   -3.91115668362472    2.71210904508825
F         3.70244909655365   -3.71215469435549    2.84057299033661
F         2.22851408655296   -5.09480409340926    2.11028018624794
F         1.88614111865235   -4.02832354940460    3.94557494315104
C         0.34860125813223    4.54672528031060    2.71658160759702
F        -0.84094027342588    5.14378256986502    2.84430997472059
F         1.16399526542698    5.42586833288166    2.12515238620286
F         0.81930122821011    4.34343235356733    3.95037723279776
