72
 energy: -177.497491513539 gnorm: 0.000162272701 xtb: 6.4.1 (a3dbbd7)
C        -1.29767873496422    0.01863094814304    3.54533110444031
C        -0.34882647587218   -1.15506381605415    3.30175201270006
C         0.96115224649547   -0.70172474130926    3.28095756283494
C         0.97886709918884    0.72548728870081    3.25864394602251
C        -0.36875234497287    1.19724169543396    3.30031012885520
C         2.31235964932155   -2.56067804616674    0.57205697220770
C         3.15732718068933   -1.39262520746082    0.57503613038966
C         2.96024236261302   -0.68476725411840    1.79170924292513
C         2.10351138412296   -1.51866751703683    2.74147261126066
C         1.57829498295908   -2.59235610735029    1.79558908039412
C         3.17454828753550    1.41377583414689    0.56518857448212
C         2.33219774479367    2.58343805807740    0.57028816832309
C         1.57976455896125    2.58072726382228    1.80328173756147
C         1.95733562264871    1.43387516657587    2.55592409238104
C         2.93865715894902    0.69142851997020    1.78807775364030
C        -0.35924861104933    3.45398772922563    0.58501705384917
C        -1.73351670054527    3.01252427439306    0.58351393498628
C        -1.97947753491307    2.30682599474447    1.80763794474107
C        -0.73551183314285    2.29516669011986    2.56390227313159
C         0.25221112697315    3.01565316455031    1.80052704882098
C        -3.39873175139539    0.73170430585286    0.57595641562483
C        -3.38496153455325   -0.69678068797459    0.57873899658444
C        -2.76080221619986   -1.12529486711004    1.81408549170733
C        -2.42973968300081    0.01260082438163    2.55889336428164
C        -2.78212961008773    1.17300750030874    1.80767967202417
C        -1.70978608444485   -2.98359997991967    0.58670414022432
C        -0.35307075891439   -3.43147749871332    0.57819741947810
C         0.26640973725218   -2.99083978528868    1.79701700363841
C        -0.74571193416073   -2.28646452472539    2.58017829710587
C        -1.94325654405711   -2.27896850748196    1.82757502996629
C        -0.24962073736400   -2.99481309264427   -1.83435355257868
C         0.75454950993699   -2.28433914993729   -2.60893570023341
C         1.96535260912687   -2.27554256497548   -1.84927438178897
C         1.72908316319233   -2.99318253150985   -0.61548830704729
C         0.36925309356546   -3.43402454637233   -0.61307649201973
C         2.79048671989695   -1.15271016318172   -1.83918283297606
C         2.41859948365553    0.01875737200456   -2.60004305606294
C         2.80292445862736    1.18203898315359   -1.84501850562932
C         3.40883206686939    0.72843711686665   -0.61818079030574
C         3.39873802374106   -0.70861198564531   -0.61889765337327
C         1.98208075259131    2.30427044650819   -1.83666039697221
C         0.75542233501568    2.30262550067615   -2.58766799530154
C        -0.24099895782859    3.02387003998456   -1.82259623500001
C         0.36805525204955    3.46140672221108   -0.60643940388560
C         1.74311550635634    3.01715489597803   -0.60592159072489
C        -1.56553846645435    2.58569916580401   -1.83035532408209
C        -1.94782159862982    1.43324859023184   -2.59380516840452
C        -2.93400616842350    0.69835133452156   -1.82793530025360
C        -3.16668824716289    1.42106521584920   -0.60572126977112
C        -2.32216758833548    2.58734302089593   -0.60545490092809
C        -2.95621610591495   -0.68143470277946   -1.82771405596374
C        -2.09936472276489   -1.51653718413697   -2.77530037640118
C        -1.56597691755012   -2.58674763196718   -1.82613248246566
C        -2.28962224021707   -2.55130323750344   -0.60404425704752
C        -3.14313917247305   -1.38137562086067   -0.60756822143633
C        -0.97143401526217   -0.69434524334135   -3.33446523514789
C        -0.98175781329174    0.71998310792443   -3.30649843996636
C         0.39185922774282    1.18346701996512   -3.31571342417591
C         1.23511729510876    0.02190520523963   -3.32036438416518
C         0.37164555396434   -1.14140095628868   -3.31404353525675
C        -1.82307762694245    0.00807739303914    4.98926423173227
F        -0.83103451579301    0.00905108758675    5.88441447945003
F        -2.57398520403649   -1.06876251826214    5.23630450334740
F        -2.58033309693456    1.08035269253401    5.24511149908431
C         2.94225266443972   -2.12378251060234    3.87697750161416
F         3.95886579018646   -2.85702205782913    3.40895585429239
F         3.47239729325955   -1.17933797661524    4.66040601150424
F         2.21341577149680   -2.92349840682886    4.66176564978800
C        -2.94466246217596   -2.13407356015912   -3.90014563651136
F        -3.95458532282552   -2.86929447886293   -3.42262992426812
F        -3.48363622039051   -1.19693318123851   -4.68773993705670
F        -2.21741031399093   -2.93442184257095   -4.68660756340209
