63
 energy: -142.112037391830 gnorm: 0.000122054313 xtb: 6.4.1 (a3dbbd7)
C        -1.29963574207594    0.00995376773441    3.54913211791848
C        -0.36978509115722   -1.16461462300509    3.31262716702240
C         0.97930698945853   -0.71165876415678    3.28262370543130
C         0.97811849786735    0.72927714120374    3.27832031897030
C        -0.37523560554903    1.18709035650785    3.30735633112271
C         2.34478103866765   -2.57651120864930    0.59383461467897
C         3.16149553226181   -1.41833607436504    0.57923046911653
C         2.93904213585737   -0.68708997453809    1.80744864613187
C         1.94925944010105   -1.40292967900491    2.56080608898465
C         1.57904473952286   -2.56129839753743    1.79155025299580
C         3.18493733712993    1.41853525848497    0.58045863779339
C         2.33568323642309    2.57642861429306    0.57808021099392
C         1.57337640739819    2.57317145773060    1.80361397860872
C         1.94973338156944    1.41816781685909    2.55948598423032
C         2.94561071993452    0.69812452158847    1.80646814778772
C        -0.36869881398453    3.43123688272462    0.58092315462141
C        -1.73130405623464    3.02133283205403    0.58433414817939
C        -2.09787274767611    2.46843364346436    1.94914275547222
C        -0.73401219237837    2.29195526951080    2.58574541088655
C         0.24524083679697    2.98139506864067    1.80583630315138
C        -3.37724218476402    0.70874195043420    0.57699626451537
C        -3.39256778262359   -0.72559275299530    0.56844018300900
C        -2.76737147613048   -1.15753988700478    1.78821365981224
C        -2.39073107839219    0.03025386418380    2.53413651511368
C        -2.75021209100137    1.13543278399516    1.81562185883875
C        -1.72962005297024   -2.99660530333256    0.57372735736814
C        -0.35931754841916   -3.43512201806775    0.57093796868349
C         0.25176043747552   -2.99148210264005    1.81096466698488
C        -0.72451188842754   -2.26688139657417    2.56061452644252
C        -1.96623820172601   -2.27715677775022    1.79417555445996
C        -0.24212811770513   -2.99700593378816   -1.80733356211838
C         0.75268322628531   -2.27465217252389   -2.56532091699347
C         1.97808616318699   -2.29261996764953   -1.84037143268350
C         1.85314071801793   -3.21823145921904   -0.65109929204828
C         0.36102398198095   -3.46319712579325   -0.60196922143970
C         2.77820207970045   -1.16936958453405   -1.82777843480994
C         2.40193970014620   -0.00302263518656   -2.58073879274760
C         2.78726569089151    1.16110638034814   -1.82656938421962
C         3.40699923186193    0.71238631541763   -0.60288784568232
C         3.41431013252750   -0.71862120081397   -0.60443390826430
C         1.97685961465458    2.28797324282927   -1.82812064882656
C         0.74780775599152    2.29149557614613   -2.58607477870652
C        -0.23878066136357    3.00932215051486   -1.82286176529120
C         0.37145577888979    3.44627787184595   -0.60047078216960
C         1.74282281571093    3.00757121971372   -0.60288415994558
C        -1.56089464718143    2.57545077261627   -1.80906450517526
C        -1.94516372690838    1.41498212651952   -2.57251238258907
C        -2.94209506614963    0.69323218844327   -1.82127334622311
C        -3.17299003740195    1.40509843626842   -0.59576429775341
C        -2.30877610719161    2.58013213791068   -0.58439187755146
C        -2.94871855276135   -0.69958973166998   -1.83547917042843
C        -1.95047303619325   -1.41474040167413   -2.58925577837360
C        -1.57035420365449   -2.58032284120236   -1.82799599942741
C        -2.33270943832220   -2.58296136675771   -0.61198617005594
C        -3.18540920106894   -1.42470983428935   -0.61546415625793
C        -0.99297846202463   -0.71715432464692   -3.31141034242208
C        -0.99406542802208    0.72505636006253   -3.31001001091620
C         0.37823648760394    1.17046070852935   -3.31577236488708
C         1.22130888741478    0.00308089474656   -3.31519686804105
C         0.37915808617889   -1.15790319590980   -3.30993780882012
Cl       -1.96556065928952   -0.00171442113990    5.23553930079005
Cl       -3.13959644859471    3.62799446215403    2.87374765675328
Cl        2.75033801572187   -4.79272849296834   -0.96377354783111
