156
 energy: -517.104426848126 gnorm: 0.685990910474 xtb: 6.4.1 (a3dbbd7)
C        -1.25955557300443    0.00826095203414    3.40283127886201
C        -0.39636808564393   -1.23355537585436    3.43189657264578
C         1.03419147939903   -0.75591369212484    3.46333395072786
C         1.02386029777005    0.75696249705051    3.41326267162064
C        -0.36801157503653    1.14263599273538    3.27277819809242
C         2.27208279434582   -2.55412756729876    0.63093183272618
C         3.29960245203778   -1.48342404404918    0.63505606899016
C         2.94029979425423   -0.67188525953919    1.80719759489122
C         2.05084276596026   -1.49119974615561    2.64573170802496
C         1.57121988746931   -2.58681897714301    1.76179570219154
C         3.18743896722523    1.36403102494962    0.56408830773596
C         2.45711529206560    2.66278359045676    0.60318972695006
C         1.65743976142075    2.65205255825136    1.88505194065280
C         1.99436578177169    1.38408941519418    2.53680880791341
C         2.92411506517088    0.67955959310623    1.79857626188298
C        -0.40339399003366    3.58109255646052    0.58557087462503
C        -1.76493286486423    2.96167923873225    0.59481196878078
C        -1.94196952621259    2.30412277063464    1.73704532266340
C        -0.79368479772427    2.36643528693901    2.66040543020088
C         0.23916668615086    3.14660161455689    1.89047244154306
C        -3.55001017476025    0.76779004219705    0.59633594764288
C        -3.56233512888930   -0.75055688633216    0.61072949984111
C        -2.89174267020101   -1.19919454922528    1.89782325984206
C        -2.39073664008197    0.00978685404188    2.53371051327199
C        -2.88794724585727    1.21334939547565    1.88821512689215
C        -1.72029038319576   -3.02366366114510    0.54164890557432
C        -0.36000147541485   -3.47335330008204    0.57557723029538
C         0.23022805062403   -3.02811912771773    1.82304449307942
C        -0.68816060137010   -2.31432110990562    2.49693380931906
C        -2.01998455016166   -2.42296332812487    1.86777192821824
C        -0.26568639780733   -3.13565471970568   -1.87573172447568
C         0.79025527394364   -2.37313136854312   -2.68819361702507
C         1.97310040058569   -2.23364061629562   -1.79847471973743
C         1.79777492526756   -3.13316184921370   -0.62399050765906
C         0.34720166953277   -3.43757293168499   -0.55883061403733
C         2.74301853621078   -1.15652884860090   -1.83130333332241
C         2.42288659998064    0.01641952121399   -2.60152399835190
C         2.79113385804845    1.15828233351109   -1.84917602381274
C         3.37230016669046    0.74354229392375   -0.59773185490998
C         3.54801315372003   -0.73204812754857   -0.65265922873350
C         1.95868264706647    2.25250654958131   -1.86505504175351
C         0.76952111855475    2.25611282754507   -2.58439665524420
C        -0.25370972164811    3.11140848009669   -1.90521664837696
C         0.35881743715741    3.41367886301990   -0.61725830620253
C         1.78869921250152    3.11795348802644   -0.66493623595080
C        -1.60380432364555    2.53264034098957   -1.83125903609038
C        -1.95166205617792    1.44400902156033   -2.54924853309998
C        -2.94061134723362    0.69500741020728   -1.82851121935908
C        -3.14748889000900    1.44110458490951   -0.63268312655271
C        -2.36642944974720    2.56414269421445   -0.61720570352125
C        -2.91257535348653   -0.66363298395663   -1.85157749020927
C        -1.95310852325027   -1.42930415620431   -2.57578878624730
C        -1.60366846470243   -2.53788455636812   -1.81962122860879
C        -2.27856570346838   -2.57967232378375   -0.59648815530425
C        -3.28194517593910   -1.48572068693301   -0.65930456401838
C        -0.95816037619055   -0.73862548139636   -3.29757781211160
C        -1.01944199493453    0.74771379995330   -3.44962975174347
C         0.40910207257556    1.16153369464380   -3.30219839629934
C         1.22694249271596    0.02011276620987   -3.31446622338967
C         0.34891132027366   -1.11061988463728   -3.30158809425172
C        -1.88021435318604    0.10267533502494    4.85075564153728
F        -1.14266701205502    0.46183129305192    5.81475039746819
F        -2.70090753876106   -0.80147739789001    5.18569330994307
F        -2.67507515591740    1.08299739626204    5.05541361999820
C        -0.62100446119176   -1.88807764476922    4.80935582630217
F        -0.60946387044867   -1.32299000976570    5.94202017823629
F        -1.78936478661648   -2.39952260893536    5.02717108230203
F        -0.02974269452763   -3.06347725873137    4.90165714557742
C         1.50678458662603   -1.06869593062515    4.92414627158564
F         1.05922430047271   -0.63673405381492    6.06523092205595
F         1.48522333009590   -2.23751783307676    5.46845073599360
F         2.66391991758312   -0.74273893327147    5.42239678193446
C         1.47926457020740    1.19174395468016    4.84706960514053
F         0.61966859207401    1.06819371548430    5.80069742620821
F         2.78829497399361    1.02152533904180    4.96934943194980
F         1.46511913855418    2.43790949645221    5.09544928019555
C         4.65573201912517   -2.12487383081988    0.94175994766499
F         4.75155049213437   -2.93847015086902    1.91154628931609
F         5.03127274679347   -3.09698230353229    0.15958291447807
F         5.52817755561561   -1.26816233417252    1.40743369632536
C         2.93267977875942   -2.15540920926361    3.70696248149725
F         3.85513812878823   -2.95419665293788    3.41455820254659
F         3.86012081535338   -1.23490236973701    4.14914043166978
F         2.29850436520237   -3.27987244118568    4.21226833899628
C         3.57310329058051    3.66811711213418    0.81653824902959
F         4.50004265654209    3.36830211006227    1.74727211999596
F         4.61453013355023    3.59269021822777    0.03240107440629
F         3.45529610785659    4.91743218807804    0.95788846424009
C         2.34384430043865    3.70145305641819    2.76916878447130
F         3.68885839271016    3.37407552644557    3.25988494306513
F         2.59095666992459    4.90547784156970    2.52643276110029
F         2.23156776452680    3.69193363023436    4.04626882790914
C        -0.65032801111923    5.10158250760323    0.74245550705757
F        -1.65035147121928    5.34949024548306    1.56463930779427
F        -1.28448188871310    5.64400899282138   -0.24022217105681
F         0.43887503006974    5.80448892403720    0.58325662782680
C        -1.20750403657669    3.30414495940294    3.83123520935645
F        -2.01399431507250    4.26547358884068    3.40151643291221
F        -2.07418243843226    2.87869652194480    4.64871751866952
F        -0.29639243381575    3.35719107382373    4.77155319018426
C         0.34673073560446    4.47791456127373    2.70243624919624
F        -0.60215781477756    5.40021912004833    3.08941869367743
F         0.93455046277495    5.52884532875126    2.26357515992181
F         0.70164696186839    4.59689227089557    3.92113923358515
C        -5.00888615267800    1.20617883609996    0.70190608552775
F        -5.80228463104210    1.02882194900254    1.66795068651060
F        -5.68034331500146    0.98988455888970   -0.41771955930085
F        -5.18323951901374    2.51867538934766    0.61959280891811
C        -5.06268930297964   -1.10117826983622    0.84627637021695
F        -5.82458949369056   -0.79400935292581    1.82823719396473
F        -6.05320020808451   -0.71385417046565    0.08636933517068
F        -5.56263292667708   -2.29440132158838    0.93454517067231
C        -4.07640380253774   -1.63734787052210    2.82077622462844
F        -4.92210059035015   -0.78878314914851    3.31825788400986
F        -4.83211292876943   -2.61986728908580    2.56596604277806
F        -3.83704569110557   -1.87839191675601    4.06881455608144
C        -4.02657809538658    1.80021624182734    2.75698189867013
F        -4.86305301529772    1.01703278498047    3.27455882455487
F        -4.50846261276243    2.92026420068970    2.30358781834317
F        -3.70314116703576    2.23562279348126    3.91157294166573
C        -2.77263719063419   -3.53495876305908    2.61644196487150
F        -2.04349073428066   -4.63818976481212    2.68401425365582
F        -3.74611020201970   -4.02367840538982    1.89355785107622
F        -2.91331076366961   -3.44407632594207    3.86765522417698
C        -0.48974728779707   -4.45967533476335   -2.59561982129869
F         0.47163810232352   -5.30780800119294   -2.63521912030383
F        -1.09209184714293   -4.32718135726005   -3.74828519842258
F        -1.31976376908825   -5.24613044983932   -1.91939585840606
C         1.16598490189095   -3.25712875809192   -3.85760176044523
F         1.77221336548262   -4.36576509053805   -3.62232080314815
F         0.20866344670062   -3.38333060375027   -4.74326918605960
F         2.15259107016266   -2.72523904952820   -4.57239799836087
C         2.57049712861462   -4.42031147395165   -0.81496030039365
F         2.27741561614084   -5.11206314923854   -1.84416303110019
F         3.83341555481286   -4.20629531196606   -1.03428449639629
F         2.35384692188831   -5.24241181899067    0.19477084670644
C         5.00347603383229   -0.96121278957070   -1.01639350097309
F         5.31622432322493   -0.32884353579644   -2.14345607128926
F         5.25378503722973   -2.15720708167463   -1.46152301518160
F         5.84257213607575   -0.34245007573212   -0.24359128671326
C        -0.42318799527495    4.39291126674201   -2.70546825785138
F         0.63316229007917    5.03417803058706   -2.98093544821574
F        -0.87511207586274    4.14562901364374   -3.91163559089758
F        -1.22460746329044    5.23877561721226   -2.15324861518241
C         2.51600687682980    4.44218711047900   -1.00091029381578
F         2.23129480716924    5.02142000840837   -2.10291328697367
F         3.74809211515100    4.28577944858025   -1.44616866816128
F         2.15061456922170    5.45212385784219   -0.27338654517665
C        -4.59117010823005   -2.18138074753126   -1.05109804213351
F        -4.49052279324513   -2.85076581389291   -2.17790954306938
F        -5.44868839899562   -1.28594427466740   -1.56881756249062
F        -4.75696086039233   -3.29996727922464   -0.33138911407631
C        -1.44416003997360    1.04376062921964   -4.86038850195417
F        -0.61811091056377    0.44511886044344   -5.70435716649833
F        -2.67483665165075    0.60426454594098   -5.06195260733602
F        -1.41491149774619    2.33584844532601   -5.08513607216393
