63
 energy: -142.117261756793 gnorm: 0.000064069764 xtb: 6.4.1 (a3dbbd7)
C        -1.30733683230540    0.00421373753101    3.58534340575003
C        -0.38419345178940   -1.16284428385653    3.29689005684688
C         0.97136751346884   -0.71567329408714    3.27881214389840
C         0.96961723838530    0.72268532266628    3.27499466030043
C        -0.38336939359518    1.16952851715622    3.29298472124107
C         2.33192097359489   -2.57142339069785    0.59022733662495
C         3.18010716521485   -1.41338346256770    0.59413497416033
C         2.94544237942480   -0.69095760131151    1.81784713046107
C         1.94518495829012   -1.41136023552382    2.56824033468154
C         1.57258557402672   -2.57104756030483    1.81388366829075
C         3.17865140690550    1.41749660535846    0.58664806731262
C         2.33386919069368    2.58650688373562    0.58708321983964
C         1.57328670429377    2.58019145865226    1.80817841704909
C         1.94448657893457    1.41711800184323    2.56105377141393
C         2.94166140684544    0.69621206585062    1.81340591495347
C        -0.36399601344974    3.44348282006082    0.58285946143967
C        -1.73411909341253    2.99783054770574    0.57920828331780
C        -1.97746576014949    2.27890245053407    1.79968670171035
C        -0.73830971271020    2.27850191430339    2.56789265930928
C         0.24614610210438    2.99637032519923    1.80930489893177
C        -3.36605551026492    0.72233752041827    0.57981353397618
C        -3.36297216301649   -0.71689028383458    0.57871979799675
C        -2.78161235846883   -1.16378859516013    1.80375207345623
C        -2.63471653857564    0.00366161846794    2.75907182244938
C        -2.78151042234382    1.16863066167727    1.80019380917164
C        -1.73214103048493   -2.99009100157003    0.58683234187130
C        -0.36703234732043   -3.42812942974101    0.58810409098785
C         0.24538058938421   -2.98707315550283    1.81369999865570
C        -0.73921571681760   -2.27275812344407    2.57739852812000
C        -1.98087433684063   -2.27370819281998    1.80718379120473
C        -0.24594133172492   -3.01988621346513   -1.82588332396168
C         0.80710256789387   -2.45142144450316   -2.75089486285042
C         1.98931204480235   -2.29397546815503   -1.82027394524035
C         1.73504270990096   -2.98228841425450   -0.60001464676808
C         0.36012670631844   -3.42319113477158   -0.60074126133082
C         2.78381624821843   -1.16801563828852   -1.81268764794317
C         2.41828597327649    0.00842065838344   -2.58129680173802
C         2.78773382518104    1.16572395474570   -1.82210816513800
C         3.39872167078496    0.72113445566100   -0.59298995639418
C         3.39627145594237   -0.71977226725420   -0.59104807553646
C         1.97616655418981    2.29931276312431   -1.81943892702876
C         0.74949942523991    2.30170463085707   -2.58003603691824
C        -0.24331961910317    3.02151551513639   -1.82699321986512
C         0.36752650059061    3.45763481132793   -0.59509414874312
C         1.74133946342313    3.01311655861967   -0.59656367561335
C        -1.56518829987350    2.59429900584945   -1.83389717501687
C        -1.94044381181280    1.42659082196762   -2.59259474646030
C        -2.93191391640570    0.70115697686579   -1.83642197106261
C        -3.15834053230917    1.41645953175941   -0.61103018514347
C        -2.32300027140601    2.58401024369117   -0.60950469955608
C        -2.92195963630626   -0.69197743023637   -1.84020701345171
C        -1.94480431563105   -1.41257763515461   -2.59787199076350
C        -1.55118537273252   -2.57822747311858   -1.82700299739931
C        -2.31214662174906   -2.56982234448865   -0.60588777455161
C        -3.15092917478272   -1.41018344106600   -0.60819243581461
C        -0.96393989678995   -0.71429476164481   -3.30618485020225
C        -0.98008187911870    0.73486611988193   -3.31336058426009
C         0.38446522700392    1.17896185174560   -3.30794870317921
C         1.22238831775540   -0.00065171609280   -3.29714241251914
C         0.38413031568475   -1.14765627137643   -3.32377355006097
Cl       -1.61353532983514    0.00643273275267    5.37136931860528
Cl       -4.10176603871322    0.00541494111714    3.82205677744707
Cl        1.19723857801968   -3.64493489507758   -4.09220398029352
