64
 energy: -146.693135674270 gnorm: 0.000082035327 xtb: 6.4.1 (a3dbbd7)
C        -1.31607964695544   -0.00016196055981    3.55284871045135
C        -0.39251414674801   -1.16079615402360    3.26030670794998
C         0.96209631638779   -0.68566527618093    3.23521935281812
C         0.96214344520385    0.68542477438629    3.23539156907853
C        -0.39249734135486    1.16054749937692    3.26049917859473
C         2.30746598758471   -2.56539174019439    0.57665285093600
C         3.15050236525060   -1.39530601000236    0.57572309771422
C         2.95075911463475   -0.68358414535284    1.79816192629993
C         2.09246873971453   -1.51500410227039    2.72797762675231
C         1.57636864646427   -2.58949987900307    1.79507081617806
C         3.15046376810447    1.39524522537230    0.57580943220547
C         2.30743854037311    2.56534054605148    0.57686856890335
C         1.57634045064287    2.58931314553733    1.79530201340262
C         2.09248830451339    1.51474304165927    2.72804061302242
C         2.95063595840871    0.68340013972986    1.79814037831330
C        -0.35965469497997    3.42249009261022    0.57059614704524
C        -1.73079801642890    2.98284072795017    0.56913004153494
C        -1.98175731933820    2.27011237442868    1.78952869651572
C        -0.74850545803330    2.27198063383294    2.56504410493498
C         0.25743773404093    2.98361279525380    1.78820902350624
C        -3.37610857140697    0.72034852871183    0.56551588761047
C        -3.37609857785734   -0.72041609155253    0.56544644486643
C        -2.79649304477965   -1.16534719627925    1.78972674647814
C        -2.65328700144034   -0.00011792905004    2.74631397467996
C        -2.79650984080984    1.16518113333513    1.78983096459111
C        -1.73079715255290   -2.98291183074385    0.56885940904614
C        -0.35964971707744   -3.42255676795767    0.57028960005551
C         0.25744978292535   -2.98377898435138    1.78793275510949
C        -0.74848198781998   -2.27222293359292    2.56482470981531
C        -1.98175706879937   -2.27029425023996    1.78931718489091
C        -0.24754019421572   -3.00745881194566   -1.84625471242892
C         0.74437920487770   -2.28944480166587   -2.60478804798389
C         1.96648493081905   -2.28683051252273   -1.84150866287444
C         1.72836483049186   -3.00348013802531   -0.61468319540714
C         0.36631202918477   -3.44522789737492   -0.61633750209829
C         2.78252666734671   -1.16455404860524   -1.84235290690097
C         2.40689782339047    0.00010692790318   -2.60229945785532
C         2.78252637966922    1.16470735570331   -1.84226837721144
C         3.38781241578099    0.71554436476668   -0.61331192619463
C         3.38781747978472   -0.71550403937212   -0.61335736149168
C         1.96648414866218    2.28698518368322   -1.84131195621523
C         0.74437874205333    2.28966151378839   -2.60458590457568
C        -0.24754088790717    3.00761576924140   -1.84598681604005
C         0.36629980917561    3.44528407161058   -0.61603255007248
C         1.72835708714102    3.00353559962916   -0.61442377381943
C        -1.56714503669941    2.57900042589996   -1.84750561837194
C        -1.94606887980788    1.41448915483902   -2.60785010937899
C        -2.93614590450414    0.69328060664083   -1.85159843773856
C        -3.16517133783634    1.41418845168705   -0.62152582842100
C        -2.32361527298999    2.57276474923711   -0.62054850409344
C        -2.93622473436663   -0.69316018662589   -1.85170716838337
C        -1.94609558705786   -1.41428734385602   -2.60799332614066
C        -1.56715039522442   -2.57885678380286   -1.84774294945719
C        -2.32361995389057   -2.57272898759070   -0.62078470723907
C        -3.16518987799101   -1.41416056754297   -0.62165946808423
C        -0.98914259370134   -0.72028890073576   -3.34012430861082
C        -0.98912854358603    0.72056234186155   -3.34005635384514
C         0.38057013526168    1.16593002349906   -3.33776847177284
C         1.22710905383310    0.00013689587752   -3.33746570574206
C         0.38056263564838   -1.16565176691485   -3.33786894851503
Cl       -1.59248993478696   -0.00031835335715    5.34184259922144
Cl       -4.10384475432127   -0.00020389785579    3.82856382127685
Cl        3.03854627143842   -2.20968011431569    4.10813448987377
Cl        3.03889247660773    2.20936906313196    4.10813451909555
