62
 energy: -137.548932762628 gnorm: 0.000144170687 xtb: 6.4.1 (a3dbbd7)
C        -1.30040786266497   -0.00387065564512    3.53009733248628
C        -0.37518092513058   -1.17738134089390    3.29632064492590
C         0.97704071888205   -0.72890079254517    3.26723780053352
C         0.96094774933063    0.72378374873692    3.28377184928732
C        -0.36661346008125    1.17010899109683    3.31359531670973
C         2.32109042393137   -2.55922606360867    0.57648636185942
C         3.18306833317935   -1.42471405509949    0.57864240778862
C         3.14230173764307   -0.75368235780232    1.93630064033706
C         1.94847183865148   -1.42512791642407    2.57425285598368
C         1.56116648599659   -2.55423112307501    1.80410686036507
C         3.15609584066191    1.41284560193826    0.58335109104991
C         2.32289200158198    2.59176141245041    0.57292068644831
C         1.56533939612942    2.58778627655597    1.79513422080846
C         1.94535746714655    1.40543648493996    2.53890165552647
C         2.91957850459845    0.71107109487123    1.80837780265911
C        -0.36289115409145    3.46230754449619    0.57660171787316
C        -1.73033834271730    3.00658533475793    0.58556374789440
C        -1.95648941431250    2.29411643379476    1.81903327940609
C        -0.74620992518965    2.28789032851163    2.56537015077935
C         0.25032103014974    3.00723180470477    1.79822608910328
C        -3.39616838159869    0.71234131940700    0.57396696043593
C        -3.40926650218418   -0.72161035690615    0.56996242529732
C        -2.78634962822434   -1.15536471025356    1.79917339667930
C        -2.42460038941368    0.00441942570084    2.55394834957158
C        -2.76944731326194    1.14064249656262    1.81407400973783
C        -1.74711598761294   -3.00135936080235    0.57982063644108
C        -0.37353868030027   -3.43780028455127    0.57989346315853
C         0.23969775893206   -2.99336326623029    1.80429991709382
C        -0.74479883367899   -2.27979437827188    2.56184458588595
C        -1.98636640519300   -2.28945516803143    1.80118799700366
C        -0.25788109923080   -3.01436334573607   -1.82725545620736
C         0.73710169174338   -2.29208801705175   -2.58431714228785
C         1.96031386430145   -2.29266844402064   -1.82441741431948
C         1.72777579731575   -3.00202775899657   -0.60331122295125
C         0.35423004359769   -3.44931224291924   -0.60197754203460
C         2.77478073548574   -1.16275771874327   -1.81558679701270
C         2.40258698096150   -0.00206809518709   -2.57566666728838
C         2.78496017202188    1.16645688787654   -1.81901001470539
C         3.40036826089751    0.72822661778900   -0.59886571666707
C         3.38725543776369   -0.72582294826206   -0.58968343343187
C         1.96673417833028    2.29211633668373   -1.82807985655843
C         0.74221780927204    2.28992074915094   -2.58578605010570
C        -0.24767039485592    3.01440007015983   -1.82985227177712
C         0.36531815966089    3.46811960083303   -0.60520537348513
C         1.73558550492683    3.02282926734734   -0.60681949857630
C        -1.56673408794315    2.58000141664785   -1.82178215761222
C        -1.94840377052448    1.41459900776604   -2.58231179255848
C        -2.94110034414511    0.69413173850520   -1.82751392078784
C        -3.17047896381979    1.40900193600302   -0.59901102764706
C        -2.31951802625378    2.57922408584301   -0.59539842984327
C        -2.94931789527720   -0.69631916465497   -1.83366818516285
C        -1.95533153732886   -1.41689258889001   -2.59005925082615
C        -1.58076110500893   -2.58458219308693   -1.82970954345787
C        -2.34197333448496   -2.58433628706584   -0.61088712444291
C        -3.18751258133493   -1.41799808818982   -0.61145484330252
C        -0.99691767744470   -0.72176851778707   -3.31289333226772
C        -0.99376591084791    0.72079269507024   -3.31203265664031
C         0.37680414218827    1.16509811087352   -3.31528902095800
C         1.22207154209680   -0.00141965703544   -3.30801291447162
C         0.37479814980428   -1.16700325764716   -3.31071254216298
Cl       -1.94091963561576   -0.01890409315277    5.24285207713622
Cl        4.68779478118034   -1.08037911505805    2.86631939715256
