63
 energy: -142.119093137871 gnorm: 0.000145677455 xtb: 6.4.1 (a3dbbd7)
C        -1.30947087867087    0.00798807617046    3.56300233356788
C        -0.37350470753619   -1.15137675834508    3.26609402251427
C         0.95261755232959   -0.70862936608623    3.26942133812631
C         0.96157441672405    0.71482608847704    3.25104384591432
C        -0.39331479736957    1.17674648967785    3.27804426696998
C         2.30965159170679   -2.56704903257364    0.58193013664173
C         3.15804263755601   -1.39892974554468    0.58259688168221
C         2.95336828154049   -0.69123795922025    1.80281546976302
C         2.07880857953909   -1.51206675452738    2.72366323823475
C         1.57617819637400   -2.59366503660814    1.79931256868403
C         3.17118250264419    1.40857623931826    0.57583433930120
C         2.32697398354848    2.57573745732617    0.57727107610763
C         1.56933895156415    2.57321005159359    1.80425506631889
C         1.94336688687877    1.42342134945596    2.55887366526842
C         2.93580165567443    0.68445021894702    1.79648971624940
C        -0.36684506007877    3.44082617408865    0.57723095181725
C        -1.73890701036070    2.99952699777815    0.57160282801158
C        -1.98840118569896    2.28591022663726    1.79197386174264
C        -0.74671426204753    2.28628442040896    2.56287832952489
C         0.24053383356852    3.00172406541533    1.80201466211010
C        -3.37000087813006    0.72463249211822    0.56965787330028
C        -3.36434856845659   -0.71563174082324    0.57244933704358
C        -2.78318340747214   -1.15877475004313    1.79219612174303
C        -2.63902815834757    0.00734328386422    2.74741484602800
C        -2.78922937285713    1.17487787507785    1.79244582528873
C        -1.72667257722865   -2.98561464097420    0.56733142930646
C        -0.35957479678074   -3.43057591568361    0.56841756455722
C         0.25387367749661   -2.98895955901219    1.79270648147172
C        -0.74630993794051   -2.28644167672394    2.56626437988646
C        -1.96634317387648   -2.26778676794957    1.79286666659447
C        -0.24302479175172   -3.00850260186695   -1.84508684069957
C         0.74908756068245   -2.28763704017757   -2.59928713867410
C         1.97242849070819   -2.28528595690791   -1.83402241153391
C         1.73291082991450   -3.00465809844443   -0.61083982347004
C         0.36872988795636   -3.44761247161967   -0.61480736403437
C         2.78875716037185   -1.16250725249153   -1.83336737447952
C         2.41373435066720    0.00229832872567   -2.59349297321599
C         2.79338140164227    1.16784388951769   -1.83473964330165
C         3.40397939474959    0.72012110840536   -0.60902327007846
C         3.39900132536135   -0.71445711021135   -0.60626923534957
C         1.97380145552316    2.28880851180417   -1.83019278776048
C         0.74969621869235    2.29005619416442   -2.58964216119136
C        -0.24349410909963    3.00903265680894   -1.83254180343282
C         0.36567048155305    3.45128081376827   -0.60448432846466
C         1.73731012553439    3.00610453785529   -0.60299971369946
C        -1.56532069597586    2.58381199785465   -1.84131790073070
C        -1.94159603041214    1.41790677445544   -2.60151626837518
C        -2.93239948574823    0.69677634290135   -1.84622327849201
C        -3.16310632678216    1.41861243870260   -0.61772979107402
C        -2.32588472212277    2.58144171511094   -0.61824493547455
C        -2.93137607552215   -0.69041187044477   -1.84417577089983
C        -1.94066404716602   -1.41320554822799   -2.60445774869225
C        -1.56319035693804   -2.57891952066837   -1.84684747869338
C        -2.31903911368616   -2.57218341448076   -0.61936194536164
C        -3.15996885334269   -1.41101019273356   -0.61887168700737
C        -0.98372267132053   -0.71785518399213   -3.33299319305813
C        -0.98359912994790    0.72381957837031   -3.33125370550134
C         0.38629219569094    1.16795805422652   -3.32543768374098
C         1.23351724919848    0.00319137266421   -3.32591628285281
C         0.38619443780848   -1.16350352585678   -3.32988059908385
Cl       -1.60034709024878   -0.01622596207442    5.34870543133772
Cl       -4.10105745194053    0.00503970708231    3.81733748073734
Cl        3.05980476076591   -2.22176446535864    4.10010084847098
