63
 energy: -142.098228785259 gnorm: 0.000076405053 xtb: 6.4.1 (a3dbbd7)
C        -1.31917901303275    0.00915723007798    3.58824872689851
C        -0.38517030284195   -1.27107554444166    3.57966991603874
C         0.99333871451138   -0.71913538715705    3.28938231587781
C         0.97367786498664    0.70179693395566    3.25933321309917
C        -0.37321935356854    1.15182955046179    3.28973794315277
C         2.33256609709288   -2.57554373229967    0.57910007835153
C         3.17246217072021   -1.40392786108529    0.57616572158382
C         2.93092089195337   -0.68190263038347    1.79959096398151
C         1.94120511376178   -1.39770731195971    2.55758512761360
C         1.58821778286823   -2.58670093946117    1.80021360647455
C         3.18824761744469    1.43081424494916    0.57838146295246
C         2.33768643486098    2.59489505224928    0.58000342870551
C         1.57618776839510    2.57990356944961    1.80266553474978
C         1.94816143945408    1.41464137556746    2.54771654668217
C         2.94443005538134    0.70667024331479    1.80107865683248
C        -0.36522894500690    3.45077202987705    0.58363346055501
C        -1.73849085212412    3.01231069737291    0.58384616554643
C        -1.97584308713961    2.29019057609225    1.80652507144105
C        -0.73249228642509    2.26121426447436    2.55856712446368
C         0.24832792012303    2.98821544353737    1.80153266620814
C        -3.39922694316715    0.73761181879216    0.57914874696967
C        -3.38235172847946   -0.69773319633033    0.57929911360986
C        -2.75049077725583   -1.12659500473897    1.81859374596896
C        -2.39592664619784   -0.01353889953055    2.55458012321423
C        -2.77310999127601    1.16393205368019    1.80480332997714
C        -1.71841885022066   -3.00763839411466    0.58261849385957
C        -0.33847824432379   -3.44699569796839    0.56368394759229
C         0.26238016639125   -2.99055562459154    1.79053666451377
C        -0.73290295679502   -2.28393844905134    2.54235999520700
C        -1.91875131821067   -2.28298501358673    1.80298612929691
C        -0.24655401284170   -3.21790518661359   -1.95792890603165
C         0.75867162704839   -2.28526614595622   -2.59911236348178
C         1.95713427233843   -2.26938045287425   -1.82917999138462
C         1.73100401586025   -3.00052087680314   -0.60745702991832
C         0.38624419375264   -3.47152663955687   -0.60611717583822
C         2.79019316272131   -1.14977567344073   -1.82976464410265
C         2.41452683747704    0.01303825504959   -2.58032878444758
C         2.79471034588756    1.17965632548055   -1.82593130971741
C         3.40920690439601    0.73485498974452   -0.60250839476779
C         3.40222682016498   -0.70830059370909   -0.60235744963841
C         1.97222520313031    2.30153561261319   -1.82337495067884
C         0.74469511869217    2.29875986654656   -2.57891268303339
C        -0.24806747443488    3.02483732271107   -1.82527107579855
C         0.36444157301220    3.46132004245839   -0.59670996313742
C         1.73947270865630    3.01981372655387   -0.59947542640486
C        -1.56944451057099    2.59630874658092   -1.82650505649757
C        -1.95007144869971    1.43111131485015   -2.58261068626684
C        -2.94809186280262    0.71500391678310   -1.82611328933669
C        -3.18450459244201    1.43580190815927   -0.60359799779721
C        -2.33226458187630    2.59820462788799   -0.60215340749021
C        -2.93821503684873   -0.67387529816136   -1.81760959365601
C        -1.93757516534794   -1.40515666155780   -2.56364444931106
C        -1.57837218980757   -2.56693004109115   -1.82042675038424
C        -2.29145299904799   -2.55845019252383   -0.60840889809170
C        -3.15868864965333   -1.38559576205423   -0.59356338467654
C        -0.99442953878931   -0.70983126136580   -3.31367571552519
C        -0.99234817020917    0.72539489262213   -3.30472220669916
C         0.38004285427656    1.17225934645264   -3.30318655267873
C         1.22512889502019    0.00931339788082   -3.29978990623180
C         0.38479995393955   -1.16027197983541   -3.30000207652395
Cl       -2.09514565267990    0.29378758287165    5.20230721178263
Cl       -0.35812846559200   -2.12573755200170    5.18190460763265
Cl       -0.38996726107894   -4.77391465124668   -2.91031947170091
