62
 energy: -137.540385378768 gnorm: 0.000197977043 xtb: 6.4.1 (a3dbbd7)
C        -1.30478427329775    0.01101808913434    3.53655844552550
C        -0.37803150109573   -1.16294789643982    3.31200041737722
C         0.96686553328166   -0.71626621338290    3.27188027869772
C         0.97560887443536    0.72518195697745    3.27421191873834
C        -0.37502333012580    1.18173369968041    3.30985755317783
C         2.33371761711691   -2.57295690105237    0.57534412841991
C         3.17914851904297   -1.40363584096890    0.57630203872744
C         2.94248299081585   -0.68795809719628    1.79888585547394
C         1.94372007074465   -1.42148358673790    2.55073734037910
C         1.58754856139587   -2.57491193633102    1.81213615518234
C         3.18214158259373    1.42152321748253    0.58019211956569
C         2.33322963055090    2.58493055646485    0.58202730585543
C         1.57448976876000    2.58028324843545    1.81075841929371
C         1.94953654986888    1.42276529998935    2.56300637667300
C         2.94176360911947    0.69682828129638    1.80336808264690
C        -0.36171365454737    3.44877891321015    0.58744467542412
C        -1.73397418398828    3.00902497725593    0.58873378263269
C        -1.97779394931260    2.30038410979538    1.81374979003157
C        -0.73788456231380    2.28405109021090    2.56960532874554
C         0.25053799137762    3.00434729035331    1.80933120771339
C        -3.40521457124269    0.73128058428147    0.57912805264845
C        -3.40029068349076   -0.70571725195269    0.58467780137424
C        -2.78281685073567   -1.13886196369621    1.82202960981915
C        -2.43289124942067    0.00922203868652    2.56448699520299
C        -2.78248073194613    1.16536927699746    1.81162088487136
C        -1.72016458860689   -2.98949590974240    0.59865873458201
C        -0.36200526066350   -3.45379530589065    0.60626191589374
C         0.23920121595784   -2.98420610950686    1.77820759449363
C        -0.74943648622604   -2.26165000045853    2.56233200228879
C        -1.98028784773573   -2.28538109836425    1.82987299405257
C        -0.24435408585841   -3.01068469082651   -1.83187764482801
C         0.73409976370936   -2.27752458568026   -2.55785971190479
C         1.96323964380258   -2.27719503807718   -1.79732641166642
C         1.75782819925296   -3.01247804987696   -0.60012068189142
C         0.40342422095133   -3.68983172226213   -0.64422891147576
C         2.79166480354732   -1.15231701109660   -1.81881759354492
C         2.40907758007568    0.00796543799870   -2.57630022449981
C         2.79426919409015    1.17692882204682   -1.82586295258484
C         3.41472556210519    0.73208416961402   -0.60307055459607
C         3.41285553223041   -0.70856969500905   -0.60469340194017
C         1.97509968393224    2.29764121490470   -1.82235224952853
C         0.74443784645625    2.29858813778903   -2.57810959717831
C        -0.24254591210121    3.01924732506461   -1.82001630604377
C         0.36823851079983    3.45971043402361   -0.59669996445974
C         1.74120732416326    3.01633614983115   -0.59698058114520
C        -1.57072684709883    2.58888045001146   -1.81779103689819
C        -1.94709097297042    1.42319054672447   -2.57919613299317
C        -2.94056814104104    0.70004715863116   -1.82321937467011
C        -3.17761829744640    1.42091989380626   -0.59962353177786
C        -2.32527327112676    2.59148614596309   -0.60077892134787
C        -2.93362004929634   -0.68877098158391   -1.81740357450119
C        -1.93692695879296   -1.40864249097520   -2.57026018578430
C        -1.55137109956543   -2.57209527993267   -1.81529704370333
C        -2.31331472281631   -2.56742708383799   -0.58191208515450
C        -3.16549390742866   -1.40337596439389   -0.59038570151499
C        -0.98897911346745   -0.71082157930334   -3.30600562860212
C        -0.99272570628865    0.73124147306108   -3.30900955489542
C         0.38031300362996    1.17566912270532   -3.30929283658890
C         1.22346576561364    0.00942691419120   -3.30466772840058
C         0.37662753223268   -1.15363530016224   -3.30137303844526
Cl       -1.95834728942542    0.02543683745900    5.25063122180816
Cl        0.59495727003254   -5.48254092353618   -0.98606047490339
