63
 energy: -142.092267215784 gnorm: 0.000116282569 xtb: 6.4.1 (a3dbbd7)
C        -1.29120034886093   -0.00260398217479    3.53056709528492
C        -0.36106563248309   -1.17682107497269    3.30734352264743
C         0.99113584642571   -0.72004414158006    3.28428160966759
C         0.98574068647144    0.72242749535117    3.28275791914080
C        -0.36371926740536    1.17399724051628    3.31054394293045
C         2.34449886029366   -2.57610674565146    0.59619786383757
C         3.19219136781238   -1.40817907585715    0.59185768227691
C         2.95864387911599   -0.68788913239708    1.81572129024450
C         1.96680881910859   -1.41186653731226    2.57260494901754
C         1.59628487318981   -2.57648862167548    1.82081369960899
C         3.19198896759548    1.42471844548575    0.58999432341977
C         2.34602439224945    2.58993928767466    0.59148565990480
C         1.58716357216660    2.58363908383188    1.81682609529227
C         1.95956148973133    1.42010531725324    2.56674451268155
C         2.95413117015271    0.70052004900018    1.81516910716289
C        -0.35354900546006    3.44846081795178    0.59257597068068
C        -1.72611184270550    3.00711946824021    0.59623539125910
C        -1.96393922384322    2.29882568124440    1.81522361848164
C        -0.72573025089107    2.28016525711239    2.57476767329847
C         0.26086616292423    3.00014909128318    1.81462565805738
C        -3.38953487083167    0.74236686614636    0.57079003273795
C        -3.39750227779426   -0.70618349974854    0.58127594218109
C        -2.76531412900039   -1.13803557305191    1.80254993839112
C        -2.40427720032784   -0.00633371526868    2.54239132856414
C        -2.76163627174733    1.16298858404061    1.79821886686571
C        -1.73106610613361   -3.01259662576051    0.61734544952990
C        -0.33886395116626   -3.44864781259953    0.59566504786764
C         0.27214625408493   -2.99843798253155    1.81589560240036
C        -0.71999673220345   -2.27824767285604    2.56782067666957
C        -1.96025740037361   -2.30851612842443    1.80394752714798
C        -0.24470628211084   -3.22881087970087   -1.93184046884797
C         0.75763327252833   -2.29245968393237   -2.57181496184623
C         1.95532021585814   -2.27467852129114   -1.80750920298731
C         1.73090958675340   -2.99774628480004   -0.57927470695633
C         0.38286354050023   -3.47044903302163   -0.57322489010014
C         2.79068272690486   -1.15473586941855   -1.81054436211814
C         2.41457852891800    0.00658678640032   -2.56486725663993
C         2.80125209232154    1.17553004898063   -1.81497533706749
C         3.41508716495929    0.73044572756843   -0.59201274420483
C         3.40993647175873   -0.71420777316565   -0.59057598440508
C         1.98391630653866    2.29934412293660   -1.81302362540399
C         0.75157659843710    2.29712704865110   -2.56555251432976
C        -0.23508246597331    3.01765023264258   -1.81576825321953
C         0.37502566482322    3.45594112952370   -0.58903303057877
C         1.75061974142041    3.01671339931473   -0.58971787278742
C        -1.55974176254202    2.57160281028354   -1.81483675528506
C        -1.94827371411155    1.43981016142115   -2.58554007916650
C        -3.14978290688260    0.77374062187828   -1.95150846174288
C        -3.19147175888534    1.44516291455548   -0.59535515556480
C        -2.32065711630142    2.57442442199774   -0.59173114535525
C        -2.94667786133525   -0.69192520766263   -1.82054914688083
C        -1.94012824343758   -1.39680207674648   -2.53850757400754
C        -1.57282352328605   -2.57595245409784   -1.79005823059143
C        -2.28826056121391   -2.56331977309215   -0.60339088786521
C        -3.14885691496483   -1.38060307374887   -0.60594898559578
C        -0.99413625017600   -0.71742622957416   -3.29562831019266
C        -0.99284559696014    0.72967765336571   -3.28351732711803
C         0.37920538835315    1.16715587467710   -3.28151771054150
C         1.22209939228015    0.00172408864037   -3.27690628517649
C         0.37917799442033   -1.16557201670523   -3.27569993104828
Cl       -1.94700928628672   -0.00884510479389    5.23548025031205
Cl       -0.36238285839456   -4.78641100515171   -2.87687171732224
Cl       -4.66761128532956    1.14694750295418   -2.90728098922292
