66
 energy: -155.832320171797 gnorm: 0.000179586860 xtb: 6.4.1 (a3dbbd7)
C        -1.28915533829345   -0.00115886300270    3.50651539249906
C        -0.37007295547518   -1.17425644981040    3.22294195675890
C         0.89941487091675   -0.72776553412198    3.14938803099548
C         0.89945149947442    0.72558764127494    3.14961104202541
C        -0.37008186248278    1.17196459538950    3.22298801051057
C         2.29594277205076   -2.56855230464942    0.56329597802861
C         3.13114439112952   -1.39465457967907    0.56691715783039
C         2.91896160765438   -0.68551845664422    1.78656919562743
C         2.07169767022134   -1.53097222031494    2.71282376304527
C         1.56149029426092   -2.61416001293777    1.78618880404261
C         3.13116571384685    1.39366389452279    0.56748724965813
C         2.29585907001021    2.56749184674322    0.56433672635842
C         1.56142101351632    2.61259166975030    1.78725392716337
C         2.07169252311742    1.52904634340758    2.71340556540197
C         2.91919185698469    0.68407426367988    1.78693390604818
C        -0.34973908561597    3.43729802308896    0.56468353217082
C        -1.71496641303778    2.98139428923973    0.56417972878775
C        -1.96406801657422    2.29202359771713    1.79159969008561
C        -0.80256440947546    2.50566208095997    2.73983444042511
C         0.26192691190012    3.04268463050883    1.79343285143512
C        -3.32893050286370    0.71807642232889    0.56691718374467
C        -3.32884145912149   -0.71933535517307    0.56658428873103
C        -2.74084735966184   -1.17147036668712    1.78643154447490
C        -2.62322471919331   -0.00108234004434    2.74036918868601
C        -2.74099801898314    1.16976056381494    1.78698384627173
C        -1.71486510415893   -2.98263473437374    0.56295388462654
C        -0.34962546332347   -3.43847756577207    0.56328061994349
C         0.26201287893727   -3.04417971531887    1.79215824499240
C        -0.80246196348776   -2.50775077071584    2.73879202311756
C        -1.96387595088861   -2.29366958026862    1.79065669630236
C        -0.24252550863144   -3.01070611054285   -1.85823158756263
C         0.74793932852538   -2.29054095027461   -2.61750816260483
C         1.97054355662023   -2.28874508805307   -1.85656159835345
C         1.72958320822030   -3.00584499768027   -0.62905858860487
C         0.36966414366615   -3.45001737201956   -0.62895928787323
C         2.78361692457718   -1.16506754062199   -1.85402683477001
C         2.40982858008818    0.00009416111914   -2.61436864187038
C         2.78356543069103    1.16497893946487   -1.85356380748026
C         3.37923984379424    0.71490467205149   -0.62074046463614
C         3.37929955458741   -0.71543900186702   -0.62103970621449
C         1.97046932618464    2.28863010655103   -1.85565212603372
C         0.74787774103960    2.29068391587621   -2.61660758075631
C        -0.24261151290580    3.01047381745806   -1.85702426259882
C         0.36954268505596    3.44930672531521   -0.62755919191562
C         1.72946109978427    3.00521547916943   -0.62784832500112
C        -1.56100626633209    2.58113130746711   -1.85740445963126
C        -1.94154021148031    1.41634979934857   -2.61614934589844
C        -2.92706820373940    0.69366335893630   -1.85389858644579
C        -3.14320996572049    1.41042506874424   -0.62287494942975
C        -2.30760029798832    2.57153539911723   -0.62489108470951
C        -2.92722455191648   -0.69404416156508   -1.85425254730144
C        -1.94157028976190   -1.41636097629832   -2.61674055436514
C        -1.56096495681149   -2.58142939699421   -1.85845260872333
C        -2.30756642028901   -2.57236064043035   -0.62593522125509
C        -3.14323661403556   -1.41126062647524   -0.62346185480415
C        -0.98692656941374   -0.72042685979636   -3.34936850084602
C        -0.98690067230543    0.72076798574367   -3.34908925115180
C         0.38329914120719    1.16637983380527   -3.34899191575330
C         1.22963981207293    0.00021126832874   -3.34884363017303
C         0.38330649179519   -1.16596976563001   -3.34943994413080
Cl       -1.52246765028140   -0.00092768048738    5.29731820023418
Cl       -4.07073492029685   -0.00162629290969    3.81692159205419
Cl        2.98930961156841   -2.16905268471127    4.12453746373729
Cl        2.98915714595674    2.16667479614314    4.12558905859251
Cl       -1.19544822089152    3.65525278240751    4.07252080505850
Cl       -1.19531079097352   -3.65829396727789    4.07059115737273
