180
 energy: -612.024440386154 gnorm: 1.095356016191 xtb: 6.4.1 (a3dbbd7)
C        -1.24473523123043    0.02091775606742    3.40595689328614
C        -0.41507569459708   -1.20864421109254    3.36573844641933
C         0.98021454856279   -0.71693238480767    3.35727978706738
C         1.01798592071468    0.77579643062337    3.40604011476651
C        -0.38476792268848    1.20370013945738    3.27010092989474
C         2.37017523585492   -2.68832793871921    0.61934728506222
C         3.21362484878401   -1.45764824486156    0.61385219864686
C         3.01477205555818   -0.68490648235214    1.86854372525020
C         1.98272754075577   -1.46682811263202    2.59286369653174
C         1.54061469144217   -2.60711041710368    1.81707623261186
C         3.15012148149050    1.40636985987563    0.63534654231188
C         2.40017750145978    2.65905962455750    0.64014226886505
C         1.54153742924363    2.56775238816206    1.83863997321640
C         1.96770905921854    1.45578475695411    2.54363190072034
C         2.89331592482654    0.75693497515118    1.78837558264899
C        -0.37977164192263    3.57667202872255    0.61874231312153
C        -1.73304435428764    2.99130664975298    0.54800549572019
C        -1.99762179882969    2.39421453051864    1.86394826378281
C        -0.70210244863402    2.28256446453507    2.55912603024287
C         0.25987829220423    3.00845258446083    1.83899156222787
C        -3.51410628482071    0.71399779536043    0.60368805111489
C        -3.36866581040466   -0.75751010679213    0.59986743368179
C        -2.79624231009390   -1.15507436989507    1.74871395690723
C        -2.49626876038725   -0.02269685080474    2.62343855654205
C        -2.87318996575596    1.20319456495523    1.86641937397128
C        -1.74768270158404   -2.99179281654597    0.55370333950428
C        -0.38737797282966   -3.57849679783749    0.61827931376143
C         0.22699921829674   -2.96175632292939    1.81675517727003
C        -0.72684635802209   -2.32338811585885    2.52032050836636
C        -2.04194112267747   -2.39022181818315    1.86902224887857
C        -0.23639938451103   -3.10641186083523   -1.84977136441892
C         0.75513841476285   -2.34629265525560   -2.66652314019578
C         2.01087279471635   -2.38392569977302   -1.86282644531212
C         1.65837214086436   -3.00365789436007   -0.59050220590050
C         0.40741072859697   -3.41060974954551   -0.57726470771891
C         2.80195315673372   -1.15831819301138   -1.88612668373296
C         2.39733103665728    0.00848081786450   -2.56945192072058
C         2.83893511279811    1.19885589822924   -1.87533552905034
C         3.49323821920818    0.76510344883701   -0.59722609713943
C         3.41832243652330   -0.72211981565196   -0.63039440387732
C         1.94434890517927    2.30205323723000   -1.81534238597002
C         0.75480177224205    2.35317454869802   -2.63061857129509
C        -0.26151219950203    3.02222633764719   -1.78114364324555
C         0.33081745365753    3.42051879244702   -0.64064581465486
C         1.77123015901370    3.11424039672222   -0.63405892891651
C        -1.59598193545464    2.58842779129927   -1.83944237340348
C        -1.97050931560544    1.44054506655654   -2.53403192041429
C        -2.91345782343738    0.68751854036182   -1.84125645117844
C        -3.26898773170045    1.47936982168223   -0.64566145235490
C        -2.29034797651158    2.59405295832343   -0.59030073650892
C        -2.96200958128839   -0.67928118299176   -1.78300065969953
C        -2.02463648165671   -1.43976307811085   -2.65372918587148
C        -1.64310227623501   -2.64741133401707   -1.84785750119963
C        -2.33736065918676   -2.55480961801648   -0.55154737446449
C        -3.20072935181179   -1.42279876782747   -0.61457950834062
C        -0.93766623074512   -0.71281064588020   -3.27540566208574
C        -1.02238224714144    0.75021306096742   -3.41624593378557
C         0.36548831669478    1.16567607500607   -3.30166083450682
C         1.24026927610883    0.01216774183258   -3.41253408280250
C         0.31656516455594   -1.11755265054021   -3.27774663319815
C        -1.75781321971908    0.11866065846699    4.84582123679449
F        -0.98713021522944    0.39781122013692    5.89507775549691
F        -2.38660922856423   -0.76603776684624    5.46642532927386
F        -2.21233916461009    1.32949950467400    5.18879993471159
C        -0.59708959060915   -1.84897373133051    4.75644982641431
F        -0.52049579434261   -1.30126583333469    5.86927628759833
F        -1.74112707264461   -2.41389984356024    5.00143537638268
F        -0.01326278502126   -3.02574412313890    4.94200307697709
C         1.31052804929423   -1.12361679155429    4.73380027456636
F         1.15962888663368   -0.61550544822825    5.95266857917736
F         1.45915011796857   -2.18264044880495    5.43346167977409
F         2.83083813526749   -0.70184334294598    5.53942639638724
C         1.45486419726248    1.20066085418743    4.78741592327983
F         0.66797146687427    1.05873959237746    5.75135952321384
F         2.74409965427647    1.02158893593166    5.00606387874358
F         1.42854705343236    2.50765515941099    4.95725974542348
C         3.29084518470739   -3.87898147714434    0.84198712560883
F         3.79501734410019   -4.00252445063995    1.99104037149518
F         4.01070375250189   -4.26364639432626   -0.13655484086467
F         2.65239037923498   -5.00764780263796    0.96587932678617
C         4.55749868693630   -2.09692849819608    0.79874473913550
F         5.19183297052441   -2.87179329169950    1.81118249418138
F         5.15473141420690   -3.04595149279757    0.21689945733364
F         5.79263105585532   -1.38653441162662    1.04332458768589
C         4.28282531777367   -0.81957257658129    2.65405423724889
F         4.79396552289695   -1.83256914286110    3.13714162988801
F         5.34923234381850   -0.15346613394143    2.24006701837693
F         4.36305213929736   -0.14610980255000    3.79604423316581
C         2.72900010430839   -2.18316273930729    3.71296909007825
F         3.70539065302886   -3.13778511687257    3.58169938547439
F         3.53945638343930   -1.54330651396633    4.61728841457922
F         2.19257410027036   -3.25684985470252    4.27522419866936
C         3.42651456306574    3.73136555840337    0.98440244764574
F         4.09042046797663    3.42867364183366    2.10102680551027
F         4.46701791845836    3.81279667418936    0.26787743464627
F         2.94513783925773    4.83952907020635    1.41978902986512
C        -0.51685517348177    5.06031574540023    0.83308965346102
F        -1.07263948443406    5.42064966714329    1.90044495311145
F        -1.18736522470827    5.62217696802007   -0.15472310437589
F         0.63054365103252    5.64582941233926    1.02123749472604
C        -2.79470194490116    3.43113419930331    2.65342501104884
F        -2.28112774130029    4.55320977239241    2.89481676476717
F        -3.72950871399714    4.00879619713581    1.87168180692932
F        -2.68702190669916    3.21492751023716    3.98856097486888
C        -5.00692071729630    0.90097356075323    0.83049449098517
F        -5.64825537952106    0.07667560463050    1.69739772437401
F        -5.82542425169123    0.29422802100416    0.01121708438692
F        -5.57714248177389    1.99935843984813    0.97020397262326
C        -3.56518380652055   -0.12512104231819    3.71231357714121
F        -4.84184971023620   -0.52857605533355    3.34691854840344
F        -3.70726871741183   -1.24432029476351    4.36496540732158
F        -3.79092396066102    0.67112343548578    4.63154393124928
C        -4.05442260850802    1.75387687103745    2.66351209728832
F        -5.10549488032665    1.14864545239168    2.96861757401172
F        -4.85073483730472    2.74673504217599    2.37540010520063
F        -4.11752624236889    2.21232100391123    3.88823225945875
C        -0.51157220030379   -5.06072759119762    0.85620798315001
F        -1.08078111906501   -5.39227669590155    1.93476228392644
F        -1.20885021405964   -5.64456848572224   -0.06531104281915
F         0.65857643503032   -5.63497717229476    0.97804364821766
C        -2.90872960489264   -3.34604026437017    2.63980352458887
F        -2.37566813624422   -4.47071999271256    2.89583889831382
F        -4.04616425849355   -3.55605116684892    2.01598373933970
F        -3.18188156784728   -2.98766851381871    3.83067749492422
C        -0.32892465174013   -4.46472844791104   -2.55650499316880
F         0.73822113086904   -5.33640550300403   -2.44644203099270
F        -0.56651766169567   -4.63896236086080   -3.78659884505785
F        -0.89230209478512   -5.46602040875925   -1.99893984026512
C         1.03795361071295   -3.21060319272629   -3.87120449235099
F         1.40855422567389   -4.38411940702350   -3.84550497212365
F         0.06916045957023   -3.25893268993813   -4.78182153502495
F         1.85846660502797   -2.78504702152578   -4.77193039387286
C         2.86854883705317   -3.44348318155469   -2.55106014690285
F         2.51973985090401   -4.74169505298591   -2.45429036388975
F         3.21743447390901   -3.41724954780335   -3.74751321828092
F         3.90510143755804   -3.91747667106948   -1.94360709095745
C         4.05022576786715   -1.62193477029136   -2.74308889667824
F         4.93792284512921   -0.79835534443799   -3.24234125202724
F         3.84988369732341   -1.76745459336140   -4.05567417592280
F         4.83537206853451   -2.58367114017308   -2.61055740752759
C         4.00174160614698    1.75852207263421   -2.73563480485568
F         4.84222118908271    0.97381842798687   -3.24787997459170
F         3.67877240773071    2.15179742049601   -3.91655813971159
F         4.55663841190324    2.83749197547323   -2.34065763240132
C         4.94731621125685    1.15235446716956   -0.75879291449288
F         5.75855023671768    0.98915251621882   -1.69397839387829
F         5.25924061718706    2.40419719469988   -0.72521810179994
F         5.69013167451881    0.95367343132914    0.32678778903468
C         4.77353115661548   -1.13700133166021   -0.97601366132398
F         5.74936681039507   -0.72682946346521   -1.72090339723704
F         5.54801859820697   -2.20573783238297   -1.10599382169487
F         6.28420938181581   -0.73114506763281    0.07514575290238
C         1.06260947572231    3.33696008183558   -3.78329289802292
F         1.35849167372952    4.50747226407319   -3.45558317688839
F         2.01002372779077    2.95863464935240   -4.55184566595431
F         0.02527417156791    3.58248717985272   -4.52083229792037
C         2.48843785015774    4.42802418015574   -0.91981326792333
F         2.09113709763522    5.09887261652999   -1.93107055552490
F         3.69527107748677    4.35082795480538   -1.34443476409311
F         2.22157793690164    5.44179500791032   -0.17496947828885
C        -4.59393104718245    2.14117347308637   -0.98545435266887
F        -4.52626567683532    2.83595656021310   -2.10186565902389
F        -5.51045843768614    1.34204883948288   -1.43433630744570
F        -4.84692366085405    3.19138790937728   -0.22900196975858
C        -2.84793842454870   -1.96818653299761   -3.80891192339348
F        -3.99601402374450   -2.43091387925857   -3.46675176288638
F        -3.41786225912952   -1.06649218375495   -4.53535789989392
F        -2.12396819175258   -2.54840237202763   -4.75528648204019
C        -2.31038682211573   -3.79329330042461   -2.54263433641559
F        -3.82487013165024   -3.84850402819822   -2.47654604145528
F        -2.28149976426872   -4.06018914905553   -3.76468018887512
F        -2.55191260530101   -4.88842290059229   -1.91753132684964
C        -1.48236659296376    1.07009936757806   -4.82200036420695
F        -0.83084511497216    0.49340803791100   -5.74574271127055
F        -2.69768531585889    0.68475001545076   -5.06002808580932
F        -1.46623015179554    2.34131833093774   -5.06911100887455
C         1.79592004034577    0.00664061414922   -4.83595575437831
F         0.93336343251348   -0.08372426484032   -5.75867940849814
F         2.51726781845779    1.02651989241307   -5.11254198446905
F         2.51914968495436   -0.99295919576475   -5.13440943578273
