63
 energy: -142.094750648463 gnorm: 0.000072001632 xtb: 6.4.1 (a3dbbd7)
C        -1.33074064785011    0.00627533127908    3.59509845911844
C        -0.39943049984906   -1.28001951942686    3.59588840032527
C         0.97653657228192   -0.72875688209493    3.29127286934085
C         0.96110013851309    0.69257840249130    3.26125481637672
C        -0.38005746015461    1.14483987758896    3.29219772874409
C         2.32021757766385   -2.56632048933392    0.56825645334422
C         3.16144214891468   -1.42312056069341    0.58378713494167
C         2.90064468906024   -0.69826618922306    1.77288396695778
C         1.91330737654986   -1.40771834078354    2.55008654792962
C         1.56039132244744   -2.59350968133811    1.79850630227047
C         3.17179122053815    1.41619723083161    0.56031589259627
C         2.32281045039254    2.58014339869854    0.56786764589586
C         1.56542267988772    2.56527950603709    1.79151646674101
C         1.94068191610252    1.39769387086030    2.53715827423203
C         2.93345976330294    0.69779133859390    1.79786110501887
C        -0.37436999174072    3.44666905074807    0.57917739985916
C        -1.74450253567008    3.00821979511251    0.58111505775766
C        -1.98066427052862    2.28586676314146    1.80627001279206
C        -0.74028458028361    2.25698461583989    2.55809502334102
C         0.24123381209401    2.97934058566407    1.79767651517825
C        -3.39961019267458    0.72875036451495    0.57811536921661
C        -3.38421596247558   -0.70474389216629    0.58035492400846
C        -2.75645461723645   -1.13018555900583    1.82355599368156
C        -2.40561541929525   -0.01410648683887    2.56026280743180
C        -2.77893215949587    1.15940012619821    1.80389318459632
C        -1.71052146781353   -3.00559194753497    0.57465031983204
C        -0.35542099210541   -3.46373626575867    0.57008376528008
C         0.24636314376138   -3.00999327748715    1.79822547352673
C        -0.75328843369993   -2.29722802333469    2.56111509392018
C        -1.92133660452599   -2.28113958639511    1.82247931341369
C        -0.23818575263334   -3.00325190017659   -1.83457763617712
C         0.74669881335905   -2.27371553154176   -2.59251325037487
C         1.97554283302987   -2.27192638539500   -1.84205584683086
C         1.74325175708825   -3.02281281710658   -0.61829408571692
C         0.38133489616932   -3.45971627421990   -0.61694022849396
C         2.79219421689858   -1.16493104597647   -1.85209335028271
C         2.39343731590127    0.00033443747126   -2.57319219625869
C         2.77267965111493    1.16420764907426   -1.81375522279040
C         3.40940991527117    0.73640640584604   -0.61379416524076
C         3.63247000828360   -0.76031627882577   -0.66042417233857
C         1.95651317061791    2.29780157886212   -1.82568515619581
C         0.73418166887102    2.29836983194900   -2.58449606942054
C        -0.26031619208417    3.02261029037573   -1.82983068468121
C         0.35464983084930    3.46318834918276   -0.60146600586586
C         1.72690506459078    3.01828374607917   -0.60791600744701
C        -1.57948636469614    2.59497421690365   -1.83064270118016
C        -1.95852133585236    1.42699691780859   -2.58952270510960
C        -2.94895780415721    0.70758594231965   -1.82858416276207
C        -3.18582108221128    1.42769469133517   -0.60655683289954
C        -2.34028736854053    2.59259945577050   -0.60496729954227
C        -2.93700181563279   -0.68485098907928   -1.82141674294035
C        -1.94730177297067   -1.40480921660134   -2.58056029406679
C        -1.55946049391946   -2.57191130353073   -1.82499407636161
C        -2.30386026773718   -2.57259455583062   -0.59548241479434
C        -3.15820900928970   -1.39705345298601   -0.59196074676199
C        -1.00003185930633   -0.71034242361149   -3.31827845749526
C        -1.00297917759489    0.73218653350570   -3.31719079723457
C         0.36907716872483    1.17541865102838   -3.31489027947747
C         1.21378463054952    0.00987900398501   -3.31557841716695
C         0.37205743349711   -1.15261894577311   -3.32125425553568
Cl       -2.11030520141520    0.29876810052396    5.20601846714764
Cl       -0.36178353404112   -2.10756303253455    5.20817379032054
Cl        5.40207823969486   -1.14101608808681   -0.95830954766972
