64
Properties=species:S:1:pos:R:3 energy:=T -146.693135579675=T gnorm:=T 0.000316334496=T xtb:=T 6.4.1=T (a3dbbd7)=T pbc="F F F"
C       -1.31652180      -0.00004314       3.55169126
C       -0.39285151      -1.16072352       3.25924194
C        0.96166381      -0.68569542       3.23425482
C        0.96173492       0.68551582       3.23433929
C       -0.39277359       1.16060988       3.25932485
C        2.30706202      -2.56539976       0.57570598
C        3.15013612      -1.39535119       0.57478106
C        2.95027773      -0.68361049       1.79711452
C        2.09191208      -1.51488950       2.72686849
C        1.57591627      -2.58944267       1.79404078
C        3.15024529       1.39515440       0.57486776
C        2.30720985       2.56523390       0.57582989
C        1.57606525       2.58926429       1.79416716
C        2.09202588       1.51467055       2.72697420
C        2.95041337       0.68339626       1.79722117
C       -0.35985503       3.42254666       0.56944360
C       -1.73098304       2.98291378       0.56793636
C       -1.98198751       2.27021590       1.78833699
C       -0.74874070       2.27210477       2.56388217
C        0.25716716       2.98369835       1.78710489
C       -3.37629703       0.72044805       0.56431084
C       -3.37633336      -0.72032508       0.56427845
C       -2.79679948      -1.16523435       1.78853873
C       -2.65353423       0.00000084       2.74516215
C       -2.79673372       1.16527840       1.78858647
C       -1.73114859      -2.98288128       0.56780235
C       -0.36004403      -3.42258578       0.56929043
C        0.25699928      -2.98381322       1.78696932
C       -0.74886954      -2.27219159       2.56377605
C       -1.98211789      -2.27022050       1.78823448
C       -0.24781312      -3.00747393      -1.84724703
C        0.74414190      -2.28948717      -2.60577402
C        1.96619927      -2.28689892      -1.84246239
C        1.72803380      -3.00359298      -0.61563755
C        0.36599960      -3.44526832      -0.61731420
C        2.78226907      -1.16466876      -1.84329796
C        2.40670190      -0.00001809      -2.60325125
C        2.78232636       1.16457794      -1.84323845
C        3.38762302       0.71541500      -0.61424874
C        3.38759253      -0.71558009      -0.61429407
C        1.96631960       2.28685061      -1.84235842
C        0.74426431       2.28953279      -2.60567161
C       -0.24765179       3.00753608      -1.84711285
C        0.36618511       3.44524190      -0.61716023
C        1.72819651       3.00349534      -0.61549839
C       -1.56724569       2.57897528      -1.84867418
C       -1.94618904       1.41445811      -2.60901649
C       -2.93630465       0.69330523      -1.85282750
C       -3.16537663       1.41428649      -0.62272248
C       -2.32378797       2.57277539      -0.62174893
C       -2.93635578      -0.69310868      -1.85286932
C       -1.94626877      -1.41427764      -2.60908497
C       -1.56738493      -2.57884746      -1.84879104
C       -2.32392907      -2.57266065      -0.62186664
C       -3.16545764      -1.41412566      -0.62278832
C       -0.98929692      -0.72032582      -3.34125008
C       -0.98925218       0.72048834      -3.34120891
C        0.38046053       1.16582498      -3.33887705
C        1.22695869       0.00002510      -3.33851372
C        0.38039771      -1.16573104      -3.33893050
Cl      -1.59295852      -0.00009853       5.34060608
Cl      -4.10406468       0.00001190       3.82739666
Cl       3.03838006      -2.20971567       4.10709472
Cl       3.03847593       2.20947231       4.10723425
