63
 energy: -142.117450472617 gnorm: 0.000072859447 xtb: 6.4.1 (a3dbbd7)
C        -1.31101939856469    0.00884367256833    3.58186247756946
C        -0.38556133007961   -1.15498850681273    3.28776732926810
C         0.96251239262311   -0.71074768729249    3.26398716118636
C         0.96650690388428    0.72763660861880    3.26718122622569
C        -0.38805755060648    1.17594887331668    3.28939183703985
C         2.49585679508290   -2.75109730031219    0.63156234539730
C         3.19554627360278   -1.40940207903093    0.58582593454824
C         2.92945772388698   -0.68928373147012    1.78646403530380
C         1.92793561116584   -1.41119394167194    2.53529810953192
C         1.57445313192307   -2.57966710415617    1.81825139639926
C         3.17749113263818    1.42448687051556    0.58722692018373
C         2.33114121159978    2.59216267171472    0.58527706835250
C         1.57020852419614    2.58760030646289    1.80818860074533
C         1.93943682853359    1.42235920043594    2.55554784405825
C         2.93766117933620    0.70241752119779    1.80262127541887
C        -0.36848366643494    3.44356969761824    0.58032882636844
C        -1.73759898165540    2.99905721504502    0.57579450391613
C        -1.98270375222308    2.28193243129009    1.79514744359415
C        -0.74284880096134    2.28426443625862    2.56724043650420
C         0.24197715907534    3.00275888053219    1.80733098423320
C        -3.36860518800610    0.72312651978695    0.57309956368117
C        -3.36935147992051   -0.71466135288571    0.57413990570300
C        -2.78075780916110   -1.16051313981578    1.79540286371026
C        -2.63676264034005    0.00574898909013    2.75332209826635
C        -2.78472881832236    1.17156521213978    1.79668941088177
C        -1.72764510899683   -2.98833366009692    0.57247384567199
C        -0.36943830901908   -3.43988217686913    0.57828011462725
C         0.25207166469994   -2.97887875008820    1.80342711371242
C        -0.73470253740183   -2.26278328832443    2.55939912395318
C        -1.97414112428391   -2.26669584404091    1.79193663730273
C        -0.24894917972589   -2.99499660136405   -1.83691785906154
C         0.73927222335847   -2.27916707872568   -2.58865850802903
C         1.96119426596121   -2.28140132212202   -1.81001239995067
C         1.73126306509377   -3.00992833832525   -0.61532844508251
C         0.37509492862361   -3.42497959881772   -0.60153771086796
C         2.79420017023493   -1.16261730207136   -1.83070019838736
C         2.41007083503324   -0.00184995690462   -2.57754632592932
C         2.78540914236183    1.16598877675167   -1.81796754796133
C         3.39636897789582    0.72237246560262   -0.59232890590055
C         3.39814139261022   -0.71731278766331   -0.58815427621422
C         1.97206219881208    2.29066510105420   -1.82121586446847
C         0.74817904726696    2.29376465583255   -2.58520131562353
C        -0.24416313044133    3.01052440217499   -1.83074401639502
C         0.36497343727861    3.45271638620788   -0.59901557503122
C         1.73674340867748    3.01277190305320   -0.59724145438995
C        -1.56623642273853    2.58577449560765   -1.83799979894439
C        -1.94316661848615    1.41987829572718   -2.60016639127560
C        -2.93489118904107    0.69713248678077   -1.84322753829691
C        -3.16258220603622    1.41844279531376   -0.61446923413103
C        -2.32469639632020    2.58025730572482   -0.61517047884973
C        -2.93701263121357   -0.68868173914675   -1.84488137216002
C        -1.94817318490160   -1.41051361620859   -2.60537392367301
C        -1.57008288818245   -2.57519507085704   -1.84388534306111
C        -2.32744278057346   -2.57159908042077   -0.61789081385384
C        -3.16158398048141   -1.41123603589164   -0.61519075866385
C        -0.98957703746435   -0.71557208201245   -3.33190168121319
C        -0.98670536738314    0.72686550804717   -3.32809574166005
C         0.38640094618960    1.16910988516977   -3.31923806703373
C         1.23019582401725    0.00600827164180   -3.31960954673674
C         0.38075982361035   -1.15960464655485   -3.32401384382188
Cl       -1.61919376959704    0.01125790547733    5.36592840267081
Cl       -4.10574706975202    0.00286887613468    3.81392717380017
Cl        3.70486440069798   -4.09916177171102    0.93504073380997
