62
 energy: -137.582502296677 gnorm: 0.000180456659 xtb: 6.4.1 (a3dbbd7)
C        -1.30590990521621    0.00000000645694    3.57755254947472
C        -0.38263143136527   -1.16611770715805    3.28596361822795
C         0.97256966953963   -0.71952509909894    3.26854093370390
C         0.97256967072722    0.71952509541167    3.26854093436758
C        -0.38263142666021    1.16611771238540    3.28596361685308
C         2.33524239047154   -2.58179091373587    0.58297316757559
C         3.18401003089591   -1.41551901906312    0.58355335343665
C         2.94545752053272   -0.69332099661651    1.80773012623266
C         1.94587484525105   -1.41427512428904    2.55713155895181
C         1.57508083659218   -2.57710943438586    1.80584668681956
C         3.18401003787574    1.41551899679277    0.58355335441952
C         2.33524240597781    2.58179089733009    0.58297316706029
C         1.57508085188015    2.57710942430474    1.80584668597752
C         1.94587485207285    1.41427511259275    2.55713155970708
C         2.94545752176057    0.69332097699013    1.80773012806852
C        -0.36288601105580    3.43718058023648    0.57877482983497
C        -1.73308464492800    2.99275670077252    0.57466682381858
C        -1.97781181892231    2.27494720137361    1.79391701767688
C        -0.73706060831021    2.27492461063269    2.56486970304329
C         0.24767809648404    2.99273367986241    1.80541664659338
C        -3.36595109151328    0.71952686121519    0.57280217185208
C        -3.36595108561470   -0.71952683104640    0.57280216442958
C        -2.78138106804949   -1.16621289173793    1.79553662664619
C        -2.63386082978994    0.00000001227962    2.75246179815605
C        -2.78138107761235    1.16621292170187    1.79553663795997
C        -1.73308466246210   -2.99275668789127    0.57466682306842
C        -0.36288603327415   -3.43718057778876    0.57877483131075
C         0.24767807806831   -2.99273368027163    1.80541664803114
C        -0.73706062072673   -2.27492460301129    2.56486970415253
C        -1.97781182903378   -2.27494718290604    1.79391701513466
C        -0.23996104638313   -3.00745061061133   -1.83058448947439
C         0.75298871968317   -2.28842832708532   -2.58426258080504
C         1.97873950076610   -2.28844916844363   -1.82263330864751
C         1.74283509529519   -3.00747113366269   -0.59857009109458
C         0.36923287279267   -3.44813339083137   -0.59946750634245
C         2.79619164078115   -1.16592846732162   -1.82283966735928
C         2.41766192329675   -0.00000000954988   -2.58076751767323
C         2.79619164677988    1.16592844575844   -1.82283966692518
C         3.40984279141637    0.72111316371296   -0.59722780380192
C         3.40984279085157   -0.72111318885300   -0.59722780559393
C         1.97873951522460    2.28844915261188   -1.82263330883297
C         0.75298873374936    2.28842831924802   -2.58426258142968
C        -0.23996102722916    3.00745060916902   -1.83058449007359
C         0.36923289479426    3.44813338694776   -0.59946750774075
C         1.74283511456650    3.00747112024929   -0.59857009234384
C        -1.56168513085457    2.58180187236134   -1.83838730901826
C        -1.93812947150429    1.41553617111776   -2.59910664746081
C        -2.93002815290342    0.69332228347378   -1.84304373342124
C        -3.15920124602057    1.41426647514665   -0.61493046239377
C        -2.32139714187256    2.57710660884891   -0.61523663187714
C        -2.93002815661965   -0.69332226561582   -1.84304374042379
C        -1.93812947936961   -1.41553616189606   -2.59910665174670
C        -1.56168514687901   -2.58180186386752   -1.83838730958844
C        -2.32139715715252   -2.57710659294615   -0.61523663298573
C        -3.15920125145611   -1.41426645193608   -0.61493046656781
C        -0.97950261399186   -0.72110646184089   -3.32453402173428
C        -0.97950261105110    0.72110646496329   -3.32453401853794
C         0.39114817496516    1.16579529184821   -3.31713671538031
C         1.23840141391730   -0.00000000563405   -3.31346443305272
C         0.39114816881259   -1.16579529772544   -3.31713671620546
Cl       -1.61064734920263    0.00000001613315    5.36393970214341
Cl       -4.10046163325561   -0.00000004119426    3.81690126052901
