156
 energy: -518.577239256078 gnorm: 0.416272249911 xtb: 6.4.1 (a3dbbd7)
C        -1.30366842224218    0.01839762366321    3.47643068047218
C        -0.41944681738043   -1.23746193752749    3.46946571848621
C         1.03743762465643   -0.74047312547904    3.47807903094119
C         0.91792630551308    0.71880054124059    3.25770527798272
C        -0.35743361074459    1.15441769335801    3.25463531066952
C         2.28332967777627   -2.56323124869662    0.61617178881298
C         3.32399572051658   -1.51587788377287    0.63477238539515
C         3.06344712095998   -0.72374819450945    1.91875788871083
C         1.91187687370659   -1.43190169089804    2.53943038114271
C         1.55423346129756   -2.49989455488515    1.77196580802435
C         3.27287651771044    1.47188442027871    0.61904264052517
C         2.30206707371885    2.58299823378957    0.56865462280227
C         1.67167247958573    2.74132589952324    1.89609713684498
C         2.04025831809298    1.47485773561097    2.68873162081331
C         2.90721659598978    0.70625503909377    1.80197044317996
C        -0.43147346749706    3.38956888456132    0.58646127751435
C        -1.73113840538598    3.01383500359015    0.60974689357664
C        -1.97864394144332    2.29416191335753    1.85035624780155
C        -0.78994242196190    2.27821050730398    2.57721440504695
C         0.20628746029163    3.15819710344225    1.90514337552295
C        -3.56192773920101    0.75512022242682    0.62371793452037
C        -3.37710675954652   -0.72580203153346    0.58361269063114
C        -2.78310360483106   -1.11005667099359    1.78884659709597
C        -2.41457605777235    0.00916766003341    2.50366075130615
C        -2.77701978820232    1.16746300647344    1.82697551490468
C        -1.73697974834519   -3.00793878275054    0.55523398209012
C        -0.37841632055678   -3.43417724517917    0.55172320138178
C         0.23690640032004   -3.15504750856558    1.88723859476743
C        -0.74619680832502   -2.27460506650261    2.51298725358805
C        -2.06928712163378   -2.40313921192490    1.88411922759194
C        -0.23803400381440   -3.18242077440828   -1.91180046963655
C         0.74730275516509   -2.24884976340161   -2.53525257739879
C         1.89484355026013   -2.27400705938988   -1.81493258055514
C         1.79403910933516   -3.14830209806337   -0.62410240371522
C         0.33891052181085   -3.43229915765810   -0.56529621672945
C         2.91379150719032   -1.22105176124009   -1.93891309813867
C         2.38408057194868    0.00675204693605   -2.57225128240730
C         2.86346658489752    1.19394119545853   -1.88425988307838
C         3.37825203772090    0.71610218132772   -0.60835836562786
C         3.58341961749258   -0.72859965380845   -0.64787882587316
C         1.93417797573349    2.30268752151040   -1.78182721825777
C         0.78402792927583    2.39178320687729   -2.70499021491948
C        -0.26221900326621    3.21127412452835   -1.93570876283514
C         0.38569968336013    3.62724448065504   -0.60712828562453
C         1.70841129050928    2.93356885556107   -0.59013685919597
C        -1.68656329600543    2.68699935258832   -1.89920692970908
C        -1.97003350540243    1.37424219517220   -2.56480835971048
C        -2.88505525946911    0.72521273820118   -1.80720395530768
C        -3.12309747801869    1.43816746791797   -0.60112161624580
C        -2.35328024257770    2.55071663046075   -0.56423521029806
C        -3.08162307441844   -0.73406015817197   -1.89580112053034
C        -1.92767246080898   -1.38796629254739   -2.57079913650072
C        -1.69104660770879   -2.69869844084463   -1.90973230014708
C        -2.32378645857958   -2.54734732350782   -0.56542308770849
C        -3.16487988246804   -1.41488165771392   -0.56505869022170
C        -0.99770533845001   -0.74465611321949   -3.30844249160904
C        -0.97958274682770    0.71368757220583   -3.31811614144853
C         0.30373404433092    1.12435683780547   -3.27212468612245
C         1.23754503975716   -0.01503926188415   -3.44054141373973
C         0.34547750475197   -1.19806481198084   -3.32766138740955
C        -1.90135194635015    0.18251143839484    4.86972232987509
F        -1.00325503000370    0.56644756748245    5.77695699576152
F        -2.79123813117754   -0.75633438736257    5.11693504105220
F        -2.66856689531168    1.26220022425709    4.93572969229911
C        -0.63925483774341   -1.93424467674108    4.83916191742522
F        -0.45650513462692   -1.35358372701880    5.97379818935542
F        -1.81364783619417   -2.43784925699456    5.05083018224176
F        -0.00567321266552   -3.04375168483159    5.04913987790161
C         1.58353366976210   -1.00368881261296    4.90234281579130
F         1.09241819230798   -0.12005775291218    5.79723935722280
F         1.76098934695663   -2.30362851178580    5.10521973300518
F         2.79957873710005   -0.72157823834634    5.14237104306626
C         4.62286527320029   -2.29107232603594    0.87305572006143
F         4.58114309203758   -3.39339303486239    1.91343924315841
F         4.96263173093077   -3.25298026396523    0.12662098631132
F         5.73564749827803   -1.77629405571781    1.22270444414143
C         4.30964979312539   -0.95060735808184    2.81473968725544
F         4.38718440582808   -2.15207163625761    3.28816027514326
F         5.36402724021596   -0.28871578123199    2.38377562293702
F         4.33648540620203   -0.41203539447901    3.97507179262583
C         4.70603300832406    2.09520032371091    0.82347772358736
F         4.94496920933019    2.76833705378807    1.87264602664336
F         5.00917965238618    2.91825503869556   -0.12671589318462
F         5.63901969819862    1.24444329484411    0.98667576546559
C         2.44354358046413    3.92532381252428    2.54917839403856
F         3.73586105527633    4.03029304196968    2.63649865213517
F         2.46727511435357    5.00595538762026    1.79978676529300
F         2.21287374521316    4.23739626572096    3.79314120604955
C         2.85260683406874    1.97460549857266    3.92067917105633
F         4.02633554149022    2.47433587685403    3.67468089318479
F         2.05462788129347    2.56781592454328    4.79574796080580
F         3.33375627219026    1.09592907197989    4.70978189884199
C         0.10766945653046    4.47208560035024    2.71334030592240
F        -1.14386824764781    4.92470729695598    2.71767703189136
F         0.63828349144440    5.53066468287498    2.19711200253502
F         0.24644924814648    4.25941361734814    4.00945062350440
C        -5.01492147824385    1.05878754915772    0.89373329416750
F        -5.38887313668773    0.45220491535624    2.00960973715818
F        -5.76004860767795    0.62997319618921   -0.09670856566552
F        -5.16767728848086    2.36619942294139    1.01612473807544
C         0.43843326405647   -4.46593100254693    2.65083061595947
F        -0.64122669441162   -5.16321735743408    2.78133535928367
F         1.24374132134346   -5.27342026988698    2.01461998992032
F         0.96415805142836   -4.28448268649828    3.81831528256261
C        -2.98759486130856   -3.35509984218529    2.64186591530205
F        -2.52729016682598   -4.55311944233704    2.77660660991646
F        -4.11703770796392   -3.51653061467665    1.97265454730309
F        -3.30912343469522   -2.90352564706354    3.81389217726494
C        -0.22861176178934   -4.48186683767319   -2.71635310059486
F         0.88880245945661   -5.06047484200153   -2.98753551137097
F        -0.42758243662378   -4.27242598726257   -4.02636775730731
F        -0.70556254656219   -5.49455658328964   -1.98761445982161
C         2.57621894222414   -4.46044982689604   -0.82385893093100
F         2.39565669342188   -5.10326142984238   -1.91108256380139
F         3.84027403337345   -4.32600870311373   -0.97160291787295
F         2.34891835278047   -5.27835699341438    0.16245706788062
C         4.00455482002154   -1.82046848978840   -2.82894156953988
F         4.87656131386260   -0.99650953819131   -3.31457264023754
F         3.54841968634755   -2.25732719290289   -3.98216570465595
F         4.48345319281028   -2.95341200988401   -2.40411642876434
C         4.07900020370159    1.80966454931923   -2.69829682265406
F         5.05438966634900    1.04538176589632   -2.96542457444523
F         3.78252581620166    2.15759662136970   -3.89533842735839
F         4.58169529196435    2.84630084113738   -2.11793016504032
C         5.13476994665490   -0.90581667655416   -0.88984362729285
F         5.80359079788527   -0.26793478296257   -1.81696527748945
F         5.67624880471795   -2.05268107140547   -1.17466663969527
F         5.94555772326483   -0.33876259545695   -0.03001074440033
C         1.21176912127391    3.28286253244314   -3.88996332157718
F         2.03766528154182    4.25867838634346   -3.43129906461866
F         2.09933031127313    2.83852752719654   -4.70295728283935
F         0.23014660295684    3.24416319461137   -4.82604465715925
C        -0.38304668217018    4.55048654333729   -2.74509913212363
F         0.58362076334613    5.46598147537523   -3.10983511564140
F        -0.78832578924208    4.57572896702082   -3.96889152508091
F        -1.08680888818310    5.54593815315812   -2.32239760064395
C         0.63991044965108    5.14018123702778   -0.71170059710608
F         1.68418956631132    5.38414091460079   -1.54118093603340
F        -0.54503347179800    5.76329728835533   -0.51881099905788
F         1.27408671763099    5.67272206389377    0.27365008269295
C        -2.56364286471091    3.69764598887286   -2.66086915710309
F        -3.83175099125663    3.34235567753724   -2.69419155972991
F        -2.38642255716802    3.54899271659015   -4.01113908878423
F        -2.78355483261510    4.80082643248999   -1.88166149161983
C        -4.36279485325743   -0.93802724634656   -2.68085257833079
F        -4.79181900165735   -2.13665180612276   -2.79848997974147
F        -4.21354991834624   -0.45937595990676   -3.90369726247820
F        -5.38477118723146   -0.39490790780474   -2.04964277224908
C        -2.46668177679473   -3.78545406531433   -2.66070737793481
F        -3.75524298862937   -3.70457736689436   -2.72152740411352
F        -2.28404126101784   -3.68824927375473   -3.97717792055984
F        -2.56666566332282   -4.92087605220674   -1.95596727407533
C         1.74394561984773   -0.02848631907379   -4.90868290012946
F         0.71014825597705    0.00860659527473   -5.71950521325495
F         2.53891909865087    0.94413758370254   -5.18747949186519
F         2.42820829129982   -1.08510647997392   -5.18462287028667
