156
 energy: -517.272223111998 gnorm: 0.695366388318 xtb: 6.4.1 (a3dbbd7)
C        -1.27534491448298    0.02196874581744    3.41288129587585
C        -0.40894705084489   -1.22789095850065    3.43627917130578
C         1.03453238421064   -0.75215551518732    3.43940146401349
C         1.01616383371224    0.76980589143903    3.41987337941474
C        -0.38811802044531    1.18918449989415    3.28140522158137
C         2.40913998185549   -2.70093746798629    0.63593262617009
C         3.30485098008523   -1.47281298295452    0.60074456618853
C         3.04415068483962   -0.73749300083716    1.89913680577804
C         1.90514915561055   -1.44726161600144    2.50335661109059
C         1.53542928097211   -2.54758686943183    1.83436665245058
C         3.16043781380604    1.46746113899474    0.57192213311459
C         2.36035393054399    2.58463788106147    0.58682129981364
C         1.57214485105169    2.57625770385370    1.81180203074438
C         1.93037547345176    1.45974295355355    2.52800444104916
C         3.04195433955258    0.76561286558048    1.87700460686846
C        -0.37088794518397    3.58183584975234    0.64407325288396
C        -1.81755486575871    3.10980760943122    0.62836422174013
C        -1.97794545568593    2.28304680274357    1.85620551593421
C        -0.74754297858882    2.28336675046418    2.55770419562336
C         0.25697048971276    2.99556466451103    1.85265171934727
C        -3.40634685282868    0.70360589894710    0.61995120733344
C        -3.38663278087282   -0.68865313509301    0.57265322474907
C        -2.89234731131559   -1.20319259201378    1.88339361732238
C        -2.42233693422152    0.02207121878283    2.52727253733687
C        -2.78225903909118    1.15130339664945    1.81215082936608
C        -1.69289327775218   -3.01680266216645    0.63331594595781
C        -0.37851316871308   -3.48943199903792    0.62843982212255
C         0.22729149313311   -3.04485442112973    1.83673845870063
C        -0.74614542619295   -2.31634858954847    2.51972848501259
C        -1.92111319959850   -2.30803486573859    1.79792948025458
C        -0.24551471243013   -3.14532003349882   -1.83800607358476
C         0.77078480551358   -2.36635014607765   -2.63237001595161
C         2.05162390302516   -2.39678876930697   -1.84238867191185
C         1.65994271868831   -3.00686280063003   -0.56306679211666
C         0.38938748045722   -3.42748117169614   -0.52923048272682
C         2.90499353913368   -1.16643885161999   -1.87164269620611
C         2.40110596685934    0.02398681599954   -2.54605080206705
C         2.89344927813534    1.21950447414578   -1.88059014975193
C         3.38245631138852    0.70707312567008   -0.56806454250188
C         3.36141608174846   -0.63678277880691   -0.58021249383514
C         1.92878760977101    2.32192650805745   -1.79363400711881
C         0.72563204179687    2.32798023905508   -2.56491325462244
C        -0.24729018316981    2.99686389245203   -1.85653448105011
C         0.40012933849938    3.57644276372627   -0.64979495863009
C         1.76104970288156    2.98149731254124   -0.61880546631303
C        -1.58558198389794    2.58945779222514   -1.80318481853252
C        -1.97859360731676    1.42114435365398   -2.56909569701595
C        -2.89107804832256    0.72670688869778   -1.84375497874904
C        -3.27001842251721    1.47074933143402   -0.62636649812406
C        -2.28943005555979    2.56890448338599   -0.63507095302285
C        -3.04492702200921   -0.71940069897671   -1.86744176432592
C        -1.95477668689814   -1.39455282356445   -2.54037593977181
C        -1.65528585908467   -2.65446645322348   -1.87625801875721
C        -2.44025160828338   -2.66541368575485   -0.57697266204311
C        -3.17752655208706   -1.38593880436177   -0.55448684527546
C        -1.05166625362540   -0.70594224664787   -3.41707426210957
C        -0.96385135678162    0.77836981725338   -3.29556914164189
C         0.32085979247126    1.19631568211645   -3.29310830544251
C         1.26551737891741    0.04791914053545   -3.41562145313313
C         0.37713995267038   -1.16691899240618   -3.41846689717080
C        -1.90520570745037    0.12859862365677    4.82530343173285
F        -1.15388236267121    0.45874650995368    5.80043997269738
F        -2.75038596626030   -0.78484624079729    5.13383615335679
F        -2.65646942985725    1.22343230124942    4.93287128188151
C        -0.63018416088925   -1.89137847799454    4.78736258519296
F        -0.58517105567327   -1.33597422248787    5.93594456331677
F        -1.82776710092039   -2.44101523669829    4.93748514700232
F        -0.00203316301276   -3.01957110329809    4.98701731303950
C         1.58406610298262   -1.16376847104827    4.80627662588014
F         1.21655667940671   -0.74708773489628    5.95808465504755
F         1.75748401721924   -2.45126292619344    4.98385034602597
F         2.81177484946962   -0.89495899207130    5.07309417223782
C         1.45268585828934    1.22457516441813    4.83159277657030
F         0.64300650685379    1.04611451404486    5.80342674014300
F         2.66781959683367    0.97772502235880    5.14856785152725
F         1.42767394878336    2.54956799462846    4.93424297558336
C         3.30409211745941   -3.90524051220544    0.90943787398520
F         3.76636998719271   -3.99124542262204    2.12325236743213
F         4.12917835327674   -4.21282239851168   -0.01500593855208
F         2.60798653794119   -5.02596615678230    0.96196074457946
C         4.73490244486308   -1.98963237086795    0.71258297630939
F         5.15856701849421   -2.75715148038540    1.61941714609420
F         5.21135784582505   -2.69493481998603   -0.24648600498097
F         5.66169219462011   -1.04336326077733    0.60004268884570
C         4.24383598651248   -1.10504405117574    2.78393635856507
F         4.31468699384140   -2.40613861108294    3.25840207678923
F         5.45066479466980   -0.83317280312757    2.47537084785324
F         4.30127639015392   -0.80005149932018    4.01001832948991
C         4.31582277380337    1.20452808015187    2.62649163725134
F         4.39561059824474    2.52675193304213    2.68948197253107
F         5.41613966838273    1.01259505582135    1.91718659467395
F         4.32987786029068    1.05131867877261    3.90188662475745
C        -0.42948168716070    5.05580436544426    0.99254139820782
F        -0.88011192378838    5.40766429555369    2.32720806500759
F        -1.07675307854335    5.92741865573692    0.33244382527243
F         0.64963992964726    5.63497455696160    1.40604659832818
C        -2.66488519327819    4.35820413801244    0.85247895073687
F        -2.57668528070724    4.85148551285051    2.04681756213322
F        -2.70905226740998    5.13376114857983   -0.22665188783123
F        -3.93120286560769    4.13353845079097    1.02222290916250
C        -4.10692418472225   -1.69898575203115    2.65641047926501
F        -4.99238841846635   -0.72002288038791    2.75786105244079
F        -4.65943356743931   -2.71444993349737    2.05919097480728
F        -3.77248822874605   -2.11543240432416    3.84054874655692
C        -0.29966167871455   -4.55414870635649   -2.45951432393364
F         0.73962149156841   -5.43121517509496   -2.32901270852052
F        -0.68843991826057   -4.82562037331020   -3.61677046583596
F        -0.90166240982435   -5.48663252836157   -1.71924018954992
C         1.11211035443891   -3.34618388791780   -3.78121717733825
F         1.44884168580949   -4.52879722544034   -3.69523935388589
F         0.26621627340632   -4.00621834168539   -4.87457227677731
F         2.12574877282898   -3.40976025969314   -4.86825357085707
C         2.91707302780679   -3.49148163593362   -2.49701815078181
F         2.57233147408916   -4.82566553891612   -2.34171208084013
F         3.41878528679525   -3.42543342229867   -3.64550166363906
F         3.98342309692398   -3.91505948980633   -1.92140397305484
C         4.17621305952784   -1.60762286039704   -2.65667996720173
F         5.14580311136658   -0.77251307153936   -2.72858692315976
F         4.01719660786457   -1.67238384885136   -3.94296723086520
F         5.00392078643372   -2.43110061597948   -2.12036554434672
C         4.08052946562815    1.78764053473486   -2.64166176977324
F         5.08802007772553    1.04125363514749   -2.76971674596668
F         3.76617006442243    2.17449190405365   -3.83122903745636
F         4.60746149963227    2.80863464582010   -1.99441704466029
C         0.62014942550526    5.04445113639658   -1.02303412289001
F         1.30733560147763    5.16781325046361   -2.14228700704376
F        -0.50125849053142    5.62327227341859   -1.48240869701732
F         1.49717597805489    5.67259938499498   -0.27608503750780
C        -4.65085457111393    2.08575562192130   -0.89215448627734
F        -4.60895967908975    2.79772038665782   -2.00148920335838
F        -5.58187703145158    1.18436327206563   -0.96420173737824
F        -5.05734910132281    2.81671932777326    0.09478983860563
C        -4.34021284077892   -0.95079609705703   -2.65817679963086
F        -4.70558118430598   -2.13601750363988   -2.85526700532506
F        -4.31780864802410   -0.42594480592604   -3.83513181986051
F        -5.39288267948522   -0.51613934592893   -2.03483048175595
C        -2.36990019438146   -3.71804049601719   -2.76612188269666
F        -3.61161814395832   -3.61801830476092   -3.20055929193661
F        -2.09362763663706   -3.71737404998735   -4.04216670211794
F        -2.52799870638238   -4.94672396612837   -2.44535583108833
C        -3.45421356259030   -3.79409513261321   -0.69937723829777
F        -4.39938639204606   -3.65813632542298   -1.55554346111041
F        -2.91690448402110   -4.98671895131990   -0.59924922800565
F        -4.28903952232094   -3.83331268517000    0.31185860317574
C        -1.59536045265791   -0.94688705083492   -4.84676042115151
F        -1.12035496137912   -0.05497788098618   -5.72507336199438
F        -2.79593041868873   -0.51579333688983   -5.04457815174569
F        -1.90096670319632   -2.17811514538597   -5.11924068837943
C         1.85869342947970    0.16103897614737   -4.84476182956927
F         0.94378866017861    0.59220828832551   -5.72591253935024
F         2.56040474256466    1.22456483647441   -5.04619895737705
F         2.84884119893643   -0.65343038333138   -5.09735186204037
C         0.54215073206623   -1.67554477804557   -4.84765544719821
F         0.32703496876754   -1.07263651304769   -6.24774697612393
F        -0.19783177052517   -2.48797891907967   -5.44936498681968
F         1.62761189553569   -1.87599524578083   -5.41850179707216
