66
-4240.413419267558
C      -1.289155338293450     -0.001158863002700      3.506515392499060
C      -0.370072955475180     -1.174256449810400      3.222941956758900
C       0.899414870916750     -0.727765534121980      3.149388030995480
C       0.899451499474420      0.725587641274940      3.149611042025410
C      -0.370081862482780      1.171964595389500      3.222988010510570
C       2.295942772050760     -2.568552304649420      0.563295978028610
C       3.131144391129520     -1.394654579679070      0.566917157830390
C       2.918961607654380     -0.685518456644220      1.786569195627430
C       2.071697670221340     -1.530972220314940      2.712823763045270
C       1.561490294260920     -2.614160012937770      1.786188804042610
C       3.131165713846850      1.393663894522790      0.567487249658130
C       2.295859070010210      2.567491846743220      0.564336726358420
C       1.561421013516320      2.612591669750300      1.787253927163370
C       2.071692523117420      1.529046343407580      2.713405565401970
C       2.919191856984690      0.684074263679880      1.786933906048180
C      -0.349739085615970      3.437298023088960      0.564683532170820
C      -1.714966413037780      2.981394289239730      0.564179728787750
C      -1.964068016574220      2.292023597717130      1.791599690085610
C      -0.802564409475460      2.505662080959970      2.739834440425110
C       0.261926911900120      3.042684630508830      1.793432851435120
C      -3.328930502863700      0.718076422328890      0.566917183744670
C      -3.328841459121490     -0.719335355173070      0.566584288731030
C      -2.740847359661840     -1.171470366687120      1.786431544474900
C      -2.623224719193310     -0.001082340044340      2.740369188686010
C      -2.740998018983140      1.169760563814940      1.786983846271730
C      -1.714865104158930     -2.982634734373740      0.562953884626540
C      -0.349625463323470     -3.438477565772070      0.563280619943490
C       0.262012878937270     -3.044179715318870      1.792158244992400
C      -0.802461963487760     -2.507750770715840      2.738792023117560
C      -1.963875950888610     -2.293669580268620      1.790656696302360
C      -0.242525508631440     -3.010706110542850     -1.858231587562630
C       0.747939328525380     -2.290540950274610     -2.617508162604830
C       1.970543556620230     -2.288745088053070     -1.856561598353450
C       1.729583208220300     -3.005844997680270     -0.629058588604870
C       0.369664143666150     -3.450017372019560     -0.628959287873230
C       2.783616924577180     -1.165067540621990     -1.854026834770010
C       2.409828580088180      0.000094161119140     -2.614368641870380
C       2.783565430691030      1.164978939464870     -1.853563807480260
C       3.379239843794240      0.714904672051490     -0.620740464636140
C       3.379299554587410     -0.715439001867020     -0.621039706214490
C       1.970469326184640      2.288630106551030     -1.855652126033720
C       0.747877741039600      2.290683915876210     -2.616607580756310
C      -0.242611512905800      3.010473817458060     -1.857024262598820
C       0.369542685055960      3.449306725315210     -0.627559191915620
C       1.729461099784270      3.005215479169430     -0.627848325001120
C      -1.561006266332090      2.581131307467110     -1.857404459631260
C      -1.941540211480310      1.416349799348570     -2.616149345898440
C      -2.927068203739400      0.693663358936300     -1.853898586445790
C      -3.143209965720490      1.410425068744240     -0.622874949429750
C      -2.307600297988320      2.571535399117230     -0.624891084709510
C      -2.927224551916480     -0.694044161565080     -1.854252547301440
C      -1.941570289761900     -1.416360976298320     -2.616740554365140
C      -1.560964956811490     -2.581429396994210     -1.858452608723330
C      -2.307566420289010     -2.572360640430350     -0.625935221255090
C      -3.143236614035560     -1.411260626475240     -0.623461854804150
C      -0.986926569413740     -0.720426859796360     -3.349368500846020
C      -0.986900672305430      0.720767985743670     -3.349089251151800
C       0.383299141207190      1.166379833805270     -3.348991915753300
C       1.229639812072930      0.000211268328740     -3.348843630173030
C       0.383306491795190     -1.165969765630010     -3.349439944130800
Cl     -1.522467650281400     -0.000927680487380      5.297318200234180
Cl     -4.070734920296850     -0.001626292909690      3.816921592054190
Cl      2.989309611568410     -2.169052684711270      4.124537463737290
Cl      2.989157145956740      2.166674796143140      4.125589058592510
Cl     -1.195448220891520      3.655252782407510      4.072520805058500
Cl     -1.195310790973520     -3.658293967277890      4.070591157372730
