63
 energy: -142.094719082417 gnorm: 0.000202522250 xtb: 6.4.1 (a3dbbd7)
C        -1.32596988504870    0.00429298555073    3.59120707196131
C        -0.39434083960581   -1.27999001028502    3.58950437036635
C         0.98302994622861   -0.73079399135489    3.28848182895796
C         0.96614924003254    0.69080565010984    3.25589558343812
C        -0.37873183763236    1.14511307460118    3.29402899892114
C         2.32132755285062   -2.58938193338391    0.57410049485253
C         3.15878823578030   -1.41592820812582    0.57629242648024
C         2.91533404600389   -0.70087146975809    1.79469507346967
C         1.92584346459979   -1.41300464325190    2.55533040834279
C         1.56969946292884   -2.60321943130976    1.79810261494107
C         3.17497909300032    1.40892873408745    0.56691058524180
C         2.33223296891256    2.59305928141852    0.58023779450682
C         1.57070077667689    2.57020333347007    1.79287835208004
C         1.93840779549822    1.39911344608756    2.53762608824363
C         2.92668491976576    0.68910705782471    1.78853024648340
C        -0.37736346864108    3.44785161115220    0.58730450614647
C        -1.74945328240330    3.01067185450158    0.58969841973004
C        -1.98261526035810    2.28850956612414    1.81148476024651
C        -0.73685113852079    2.25808182941852    2.56116577881606
C         0.24013193267547    2.98294437264610    1.80573497896915
C        -3.39771379292845    0.72454051000793    0.57886679943066
C        -3.38470198559547   -0.71060515769867    0.58117092950422
C        -2.75556307784420   -1.13390155425769    1.81902532543874
C        -2.40290494891396   -0.01417067971441    2.55943640010756
C        -2.77435771674227    1.15586855536159    1.80714127173414
C        -1.71592911189437   -3.01059477074397    0.57491054520495
C        -0.35630516565746   -3.46637824306488    0.56966065145186
C         0.24834837460081   -3.01084566326330    1.79782091140263
C        -0.74774760412979   -2.29601784558442    2.55395542501306
C        -1.92198471171075   -2.28297790231573    1.81882353038460
C        -0.24464871662694   -3.02457967305961   -1.83565128139112
C         0.74545018000289   -2.29536705820357   -2.59050594423681
C         1.96719840294832   -2.29157749095175   -1.83539963651028
C         1.73844322340482   -3.01906275404615   -0.61453402093548
C         0.37106944614818   -3.47314910797543   -0.61498352021719
C         2.76690237063833   -1.14864071572470   -1.83107784085049
C         2.41330749786074   -0.00392115172619   -2.59911946557381
C         2.98205275626825    1.24079976328855   -1.95456003903734
C         3.41416304067561    0.72111955156829   -0.60135342197484
C         3.37842969162402   -0.70500324456305   -0.60084526139401
C         1.95421352963811    2.30810526246073   -1.82699805690948
C         0.74682648412429    2.28618251652406   -2.56159291455828
C        -0.26072823670570    3.01317693465067   -1.81535657178323
C         0.35001334955784    3.45314521255357   -0.59148152614139
C         1.72493481846822    2.99762598107507   -0.60683967992621
C        -1.57778010630747    2.58879765416343   -1.82019845820947
C        -1.95618718334321    1.41879557713858   -2.58209302635745
C        -2.94367215952468    0.70156122907204   -1.82693169355054
C        -3.18370682554485    1.42229744354328   -0.60201215552492
C        -2.34142472260783    2.59115224977455   -0.59844449069871
C        -2.93899032394394   -0.69308966434038   -1.82029872810885
C        -1.94522715347194   -1.41360508484612   -2.57775905274734
C        -1.56362321086380   -2.58418510971727   -1.82506839689791
C        -2.30714340602891   -2.58016805600682   -0.59596755314595
C        -3.16172239949786   -1.40245364312106   -0.59458452691501
C        -0.99079791181329   -0.71831156088526   -3.30398247840314
C        -0.98905979404897    0.72545731593111   -3.30574765747034
C         0.37366096055253    1.16950773008938   -3.31715515191527
C         1.22687709449982    0.00218909832291   -3.30354149868916
C         0.37889796127492   -1.16337573605265   -3.30392569541500
Cl       -2.10676633682648    0.29440177911015    5.20500377709511
Cl       -0.35818542024456   -2.11410133596077    5.19939312334025
Cl        4.42923273776138    1.85367287269524   -2.90304546139261
