62
 energy: -137.548317092557 gnorm: 0.000104460295 xtb: 6.4.1 (a3dbbd7)
C        -1.30183381762989   -0.00000000652752    3.53452326499267
C        -0.37313361564398   -1.17459037144979    3.31376132244835
C         0.98025679812869   -0.72134348549267    3.29431562408754
C         0.98025679698674    0.72134348289696    3.29431562558574
C        -0.37313361710195    1.17459035830013    3.31376132054858
C         2.33807778140793   -2.57949872113676    0.59876403899669
C         3.17590409615899   -1.41511462089254    0.59297350820573
C         2.94478407694325   -0.69177951800577    1.82009708676904
C         1.95063909673715   -1.41509175135891    2.57569521260514
C         1.58105327510743   -2.57947088222452    1.82379894317152
C         3.17590409628765    1.41511462376291    0.59297350641117
C         2.33807778085939    2.57949872012000    0.59876404138484
C         1.58105327557405    2.57947088008384    1.82379894376932
C         1.95063909487206    1.41509175222050    2.57569521427192
C         2.94478407514255    0.69177952260364    1.82009708531510
C        -0.36021670736625    3.43858721470627    0.59042815409104
C        -1.73940341445273    3.00050323938322    0.59604596504074
C        -1.97379216466707    2.29327477170039    1.80402937579978
C        -0.73141915010584    2.27443877463226    2.57124073688554
C         0.25430829966994    2.99475604180636    1.81734944526725
C        -3.40347778235419    0.71862354319434    0.57303077488421
C        -3.40347777023884   -0.71862355171545    0.57303077045042
C        -2.77476142151922   -1.14901249164692    1.80472123280991
C        -2.41828283499579   -0.00000000838943    2.55114935126178
C        -2.77476143172398    1.14901248428778    1.80472124015605
C        -1.73940340790628   -3.00050322409489    0.59604594967765
C        -0.36021671055972   -3.43858721343070    0.59042814698029
C         0.25430829881939   -2.99475603990102    1.81734943879415
C        -0.73141914826973   -2.27443878156125    2.57124073593604
C        -1.97379214665676   -2.29327476222083    1.80402935643560
C        -0.24530472336501   -3.00051584211590   -1.82176120973439
C         0.73022353428419   -2.29325481033336   -2.57174416017910
C         1.97215197475225   -2.27444922058154   -1.80377664509826
C         1.73882726397582   -2.99478643253560   -0.58495459099029
C         0.36660668448350   -3.43861702644360   -0.58574358803667
C         2.79645206229264   -1.17456971236245   -1.81547102101317
C         2.57841528275118   -0.00000000482969   -2.74479879727590
C         2.79645206209237    1.17456970367719   -1.81547102239454
C         3.38455184645412    0.72134952877401   -0.59634962294307
C         3.38455184592262   -0.72134952763562   -0.59634962104705
C         1.97215197582655    2.27444921725993   -1.80377664639791
C         0.73022354477339    2.29325482169583   -2.57174418487634
C        -0.24530471207917    3.00051585778500   -1.82176122155008
C         0.36660669111166    3.43861702806720   -0.58574358639568
C         1.73882726915321    2.99478643586238   -0.58495459093612
C        -1.58375598986387    2.58025979956068   -1.81474139919078
C        -1.96529597159617    1.41518791116337   -2.58048455262636
C        -2.96433775303870    0.69422731534260   -1.83145065912289
C        -3.18734633317764    1.41516756845159   -0.60286988036690
C        -2.33183302622475    2.58024982429220   -0.60416516990501
C        -2.96433775658008   -0.69422732319371   -1.83145065490405
C        -1.96529597329391   -1.41518791102218   -2.58048454074696
C        -1.58375598636667   -2.58025978708472   -1.81474138622082
C        -2.33183301446730   -2.58024981126555   -0.60416517011103
C        -3.18734632495266   -1.41516756637101   -0.60286987993372
C        -1.01029173826579   -0.71862493677577   -3.29980594398603
C        -1.01029173455276    0.71862492679686   -3.29980595975171
C         0.37252712882442    1.14900863177758   -3.28841400787383
C         1.19960116516089   -0.00000000841544   -3.30346526964150
C         0.37252712378906   -1.14900863828523   -3.28841399469405
Cl       -1.95214289894475    0.00000000806464    5.24592207820017
Cl        3.81840607275301    0.00000000103069   -4.09214154859991
