62
 energy: -137.536868206048 gnorm: 0.000084338709 xtb: 6.4.1 (a3dbbd7)
C        -1.29670178559847    0.00071606815766    3.54063011448813
C        -0.37045114066748   -1.17465496789558    3.31884935770850
C         0.98103533452548   -0.71988329676462    3.28745719790126
C         0.98106097165664    0.72178694978026    3.28722741549606
C        -0.36978313734244    1.17488444971498    3.31698692535023
C         2.33467373824669   -2.57773333578382    0.58773952445832
C         3.18454972693834   -1.41168940347049    0.58859893336053
C         2.94529775463809   -0.69205197997730    1.81255152742115
C         1.95087138843434   -1.41398290470677    2.56654970720550
C         1.57873625957961   -2.57674547688267    1.81508569794472
C         3.18774761681168    1.41927139410215    0.59138139553486
C         2.34048984788325    2.58690689887704    0.59227940923136
C         1.58086688092860    2.58058133121724    1.81636566823753
C         1.95291247082379    1.41702774690678    2.56835372859598
C         2.94685912283152    0.69718703935182    1.81446649612627
C        -0.35718573058060    3.44581303589798    0.59200100647945
C        -1.73065784498738    2.99864344770412    0.59276990999040
C        -1.96965314208826    2.29137583849349    1.81569386091928
C        -0.73338143256430    2.27556741551665    2.57331376968495
C         0.25512412386938    2.99819036522623    1.81410719749637
C        -3.39853544630547    0.71706038024881    0.58446749046376
C        -3.39622143145002   -0.71751944546782    0.58701657548603
C        -2.77273566954197   -1.15071857853733    1.82052603455410
C        -2.42177209079970   -0.00066100188468    2.57163455694888
C        -2.77126881684498    1.14862845550207    1.81112257420914
C        -1.73626105899650   -3.00302441482229    0.60321932933735
C        -0.36269152689912   -3.44534639328968    0.59665884618221
C         0.25276356891685   -2.99709880216170    1.81493925152444
C        -0.73352759327806   -2.27741301812890    2.57925809873408
C        -1.97403098265997   -2.29606124556796    1.82476898700580
C        -0.24637862622430   -3.01136028183686   -1.81525515751940
C         0.74458497068525   -2.27185918961359   -2.57271767038196
C         1.96895031028245   -2.27546413664706   -1.81334534119625
C         1.73653160783556   -2.99754994295602   -0.59129611529493
C         0.36253576741161   -3.44311040270429   -0.59226521750678
C         2.79601924089446   -1.15834588563557   -1.81544188157977
C         2.41316909991951    0.00169552483378   -2.56743257066225
C         2.79404878515226    1.16826206427704   -1.81344177143640
C         3.41321020849719    0.72563513597488   -0.59029820737372
C         3.41410509257185   -0.71700718215569   -0.59125656341366
C         1.97620130004220    2.29125373208869   -1.81158249462864
C         0.74744454724525    2.29080421518368   -2.56573045403426
C        -0.23718032853163    3.01272712190494   -1.81437601194994
C         0.37364177089308    3.45781548671352   -0.58693624481742
C         1.74659649325912    3.01402453362039   -0.58763256505291
C        -1.55699136257741    2.57341163457948   -1.81441681362041
C        -1.93177965622393    1.41147400381261   -2.57882748331587
C        -2.94640513236098    0.69734069051176   -1.82449700641859
C        -3.16977716457972    1.40899655873019   -0.60296243660771
C        -2.31854113350442    2.57422977989101   -0.59624238625616
C        -2.91934593308169   -0.69872187069506   -1.82032783226182
C        -1.95928968106556   -1.42280311162855   -2.57136028122537
C        -1.56659336673329   -2.55804615940329   -1.81081977081385
C        -2.32789276661093   -2.57766581778863   -0.58427280524190
C        -3.16927810835624   -1.41571710210206   -0.58688781929584
C        -1.04822186903939   -0.76254246458778   -3.54020079948461
C        -0.98972056318058    0.73271640395898   -3.31822026664205
C         0.37093480595839    1.15922533804998   -3.28672250416707
C         1.21838160055791   -0.00707072397790   -3.28648122493635
C         0.39186610220418   -1.16766631882782   -3.31643113797586
Cl       -1.93178866809082    0.00400435978832    5.26596677606858
Cl       -1.55980419974943   -1.13811672154150   -5.26570852913531
