62
 energy: -137.540781301200 gnorm: 0.000094610349 xtb: 6.4.1 (a3dbbd7)
C        -1.30821000601221    0.00301210230059    3.53902352349447
C        -0.37405214671491   -1.16784127595809    3.31530153229410
C         0.95975101281718   -0.71637291053260    3.27785301092262
C         0.96316199528053    0.73068890334821    3.28035972457717
C        -0.38640534587399    1.18204921905741    3.31841015866627
C         2.32179807739177   -2.58039469808393    0.56972114645674
C         3.16521818150311   -1.41538110120126    0.56650713296627
C         2.92456486882996   -0.69920803771669    1.80837506371067
C         1.94657868639682   -1.40790906104703    2.55211917020280
C         1.56533125230315   -2.57576133116511    1.79785519187564
C         3.17685643037648    1.41716956684279    0.60051261233064
C         2.31798604996651    2.56444532534918    0.58767471876491
C         1.55799315105330    2.57906078617829    1.81527505737790
C         1.92803230062177    1.42476385809636    2.56143376099211
C         2.92264435446273    0.70484594752688    1.78246697188773
C        -0.37309246482355    3.45666512001099    0.59864077126677
C        -1.74302901408625    3.00536023900381    0.59536951908934
C        -1.99145989661623    2.29722844097278    1.82099835490840
C        -0.75344653619019    2.28555596819095    2.57765322968134
C         0.23251109856768    3.00902536809624    1.81568367206342
C        -3.40358264108513    0.71760083446870    0.57903033362383
C        -3.39883686999222   -0.71776372322303    0.57996217214941
C        -2.77438560473541   -1.14622307523648    1.81701588141967
C        -2.43169235950948   -0.00118188821868    2.56456383167587
C        -2.78557329982694    1.15444159179266    1.81220303021128
C        -1.73135731240845   -3.00513385753090    0.58624623138004
C        -0.36606745503001   -3.45443829683501    0.58034160502798
C         0.24910939560342   -2.99833856313667    1.80161796170068
C        -0.74615664121168   -2.28113480751809    2.56902827765510
C        -1.96503337526575   -2.29113836613567    1.82300866413748
C        -0.25294010314162   -3.02002886311694   -1.82629434189660
C         0.73819010861690   -2.29222492338688   -2.58292968687096
C         1.96119169454623   -2.29158135831495   -1.82329786244942
C         1.73133828219394   -3.01946216440644   -0.60718235945211
C         0.36132497114543   -3.46766742013656   -0.60413126699128
C         2.77779241569093   -1.16054678673361   -1.80969769903307
C         2.39833169064770    0.00548414962476   -2.56695397990239
C         2.79174231032924    1.16817187817347   -1.83493652308365
C         3.63921431002189    0.76074105489266   -0.64933951410173
C         3.40985224891051   -0.73473049213824   -0.60485809489811
C         1.97004857037162    2.26919065352251   -1.81942681724900
C         0.74692739845670    2.27407109520221   -2.57086829436247
C        -0.24411972590397    2.99680891426126   -1.80925109409300
C         0.36844713906897    3.44838366381132   -0.58532414675109
C         1.73191595411748    3.01440513501496   -0.58614768581237
C        -1.56569407097928    2.57526569507108   -1.81634906465667
C        -1.94923269604595    1.41208493565385   -2.58040786145829
C        -2.94340253199492    0.69411192279447   -1.82463354731151
C        -3.17846427853006    1.41236596971530   -0.59974608995016
C        -2.32556539701989    2.57552745498844   -0.59255633111204
C        -2.94290979466178   -0.69732175483794   -1.82265736106937
C        -1.95288944810934   -1.41901787966934   -2.58016252269235
C        -1.57285308788839   -2.58624127341732   -1.82053831281544
C        -2.32552961302152   -2.58562596404167   -0.59486896609230
C        -3.17445788233108   -1.41212657754175   -0.59556369122248
C        -0.99860738962889   -0.72570419097472   -3.31144394802119
C        -0.99791037566816    0.71671314098218   -3.31164520875165
C         0.37528737348531    1.15802451413851   -3.30885874060016
C         1.21838851298764   -0.00249409536399   -3.30597425331281
C         0.37276438513709   -1.17006288148387   -3.31129064352469
Cl       -1.95559327965609   -0.00458433592662    5.25557802835574
Cl        5.41010691084367    1.12111488812766   -0.97238244341891
