62
 energy: -137.537102250197 gnorm: 0.000265448194 xtb: 6.4.1 (a3dbbd7)
C        -1.29967414207443    0.00473239318912    3.53938407192982
C        -0.37316839886393   -1.17081276913028    3.32148226189764
C         0.97802565601009   -0.71758600113860    3.29093608637504
C         0.97676954097634    0.72490855046473    3.28727297616545
C        -0.37220129495948    1.17853558279792    3.31768008807101
C         2.33226896733180   -2.57239794841058    0.59094512367957
C         3.17868897005050   -1.41367053734892    0.59331189014269
C         2.94405111583311   -0.69199620443474    1.81731006008503
C         1.94936132794808   -1.41293639941639    2.57290689905333
C         1.57512779021154   -2.57243122313142    1.81729122692986
C         3.17696279078066    1.41638643845040    0.58546007463411
C         2.33408896029720    2.58620534295504    0.58727843351459
C         1.57609138894906    2.58129785538187    1.81150756320713
C         1.94915621652958    1.41833559160856    2.56600006578575
C         2.94025925594805    0.69637636808522    1.81280860701104
C        -0.36194935568539    3.45130849380774    0.58934318000267
C        -1.73564283600522    3.00714556297838    0.59328296555351
C        -1.97197225429997    2.29818370082460    1.81587305038332
C        -0.73510082162754    2.28065632042179    2.57128585279542
C         0.25186548666989    3.00124626052444    1.81250242000388
C        -3.39637640097293    0.72124254536766    0.58002132804858
C        -3.39373106809200   -0.71493518913083    0.57899747667744
C        -2.77219085617215   -1.14700807107442    1.81388451040111
C        -2.42140549892117    0.00393470615681    2.56521597885879
C        -2.77123099903796    1.15293621990217    1.80985184488632
C        -1.73357439088471   -2.99900562349777    0.60046465388472
C        -0.36532327057757   -3.43673703618221    0.59440955247996
C         0.25028725764706   -2.99132475431374    1.81600169098153
C        -0.73660108111613   -2.27368457002942    2.57988552113758
C        -1.97524822649432   -2.29121259402346    1.82324136596902
C        -0.25098814194563   -3.02325237199281   -1.81877542243400
C         0.79886130174461   -2.45248706339790   -2.74571846098281
C         1.98372478757531   -2.29487573317993   -1.81815301479199
C         1.73283840576771   -2.98396877380413   -0.59743969175988
C         0.35824631588424   -3.42669614880011   -0.59611821789121
C         2.77874162212081   -1.16875806734780   -1.81281873178395
C         2.41112793465368    0.00719363189585   -2.58030351948201
C         2.78198514171997    1.16405418125061   -1.82245796489536
C         3.39575703415016    0.72005216426848   -0.59451044680473
C         3.39364896875557   -0.72044220614987   -0.59245833121744
C         1.96969827865691    2.29780842213794   -1.81773743838369
C         0.74061361509402    2.30047895128500   -2.57423008597777
C        -0.24888774952455    3.02281054102630   -1.81920221968378
C         0.36588943377207    3.46016963240668   -0.59044290746423
C         1.73897141591265    3.01314845388842   -0.59438903721707
C        -1.57192435975014    2.59241200961093   -1.81700245031725
C        -1.94963453034182    1.42576601976368   -2.57735993951973
C        -2.94453421847816    0.70223091852077   -1.82435845613209
C        -3.17408580058429    1.41754920902434   -0.59988142152388
C        -2.32869991006540    2.58879750080742   -0.59571150342049
C        -2.93478869681813   -0.69270675756253   -1.82715494251642
C        -1.95291018989962   -1.41236936803243   -2.58160024085486
C        -1.55689466526390   -2.57693516352509   -1.81019079140821
C        -2.31664195509215   -2.57369092567666   -0.59205593081776
C        -3.16692543896150   -1.40988700583584   -0.59709488257019
C        -0.97576523055748   -0.71465197361210   -3.29215740748763
C        -0.99178237844309    0.73399400588545   -3.29997033923648
C         0.37367709779962    1.17746666498699   -3.30015061866978
C         1.21057266662765   -0.00196577731011   -3.29183022084395
C         0.37396334531166   -1.14840445532754   -3.31547854036955
Cl       -1.94628011833532    0.00665621993697    5.25998668040979
Cl        1.19156859525204   -3.64227739612727   -4.09048692253597
