62
 energy: -137.548316752131 gnorm: 0.000360410696 xtb: 6.4.1 (a3dbbd7)
C        -1.30189039289465   -0.00000028387230    3.53453538959089
C        -0.37309411904271   -1.17457065612363    3.31356775503193
C         0.98030369150830   -0.72134104791394    3.29411425514982
C         0.98030346766643    0.72134097758078    3.29411380510550
C        -0.37309424241521    1.17457028390917    3.31356768713681
C         2.33831046037350   -2.57941128106550    0.59863853673281
C         3.17617702551786   -1.41514255068868    0.59296798093035
C         2.94502383453860   -0.69178374898308    1.82007733440721
C         1.95080910767045   -1.41505891743217    2.57562611009130
C         1.58132004876697   -2.57953221515416    1.82370626216069
C         3.17617669494460    1.41514256363883    0.59296771150522
C         2.33831016989312    2.57941107317671    0.59863850472767
C         1.58131991498425    2.57953195889146    1.82370589297838
C         1.95080883446972    1.41505885886369    2.57562567710227
C         2.94502291712757    0.69178360104003    1.82007646160279
C        -0.35991559186837    3.43851352276120    0.59017339195387
C        -1.73901517092172    3.00021751578873    0.59565982575184
C        -1.97360299028399    2.29309114565686    1.80366250415550
C        -0.73127820724875    2.27430035001497    2.57091741468540
C         0.25451620734320    2.99465048216750    1.81713610518204
C        -3.40318187102962    0.71862005260767    0.57263001148424
C        -3.40318226154589   -0.71862066693137    0.57262937890686
C        -2.77481809259666   -1.14899464050338    1.80455146966276
C        -2.41857851476215   -0.00000037821503    2.55120063356453
C        -2.77481848252668    1.14899448414582    1.80455211734748
C        -1.73901468455239   -3.00021630447163    0.59565882434193
C        -0.35991557707607   -3.43851321623481    0.59017314235592
C         0.25451630965339   -2.99465028171764    1.81713602985485
C        -0.73127805682795   -2.27430039809948    2.57091727294720
C        -1.97360173852391   -2.29308997455489    1.80366112837180
C        -0.24489274654984   -3.00073546010243   -1.82209591487540
C         0.73070707498986   -2.29346270824559   -2.57195054330231
C         1.97258757333164   -2.27449131526935   -1.80388960136236
C         1.73915821608687   -2.99475568799423   -0.58506301061906
C         0.36695118930949   -3.43858881567390   -0.58597504644062
C         2.79686314867304   -1.17455151825801   -1.81545927187996
C         2.57878773218720   -0.00000034622064   -2.74458824214929
C         2.79686312037828    1.17455109941026   -1.81545951263648
C         3.38492509418252    0.72134392272707   -0.59631313276385
C         3.38492544019657   -0.72134399052503   -0.59631296039021
C         1.97258768656856    2.27449123435131   -1.80388980815486
C         0.73070767525577    2.29346374220364   -2.57195202687231
C        -0.24489216568834    3.00073652428582   -1.82209654282238
C         0.36695139058840    3.43858910181710   -0.58597507282827
C         1.73915826616204    2.99475589853976   -0.58506316561693
C        -1.58326620369876    2.58022624611585   -1.81511718554956
C        -1.96492308827497    1.41526677520622   -2.58095317097878
C        -2.96394718876499    0.69422781231177   -1.83190089944074
C        -3.18690013347524    1.41509516706972   -0.60328558487401
C        -2.33144105943665    2.58026013653905   -0.60458632724867
C        -2.96394830929391   -0.69422885039022   -1.83190215826817
C        -1.96492348171694   -1.41526698456368   -2.58095373229983
C        -1.58326594213269   -2.58022548032840   -1.81511689045167
C        -2.33144032147074   -2.58025923358456   -0.60458653481572
C        -3.18690009812482   -1.41509511911171   -0.60328615940080
C        -1.00981806443841   -0.71860940527074   -3.30004654756865
C        -1.00981729132300    0.71860847617015   -3.30004524908205
C         0.37294033022427    1.14902871695070   -3.28827836420104
C         1.19994496124345   -0.00000043464575   -3.30308971244999
C         0.37294000389371   -1.14902905656823   -3.28827817913918
Cl       -1.95191161464947   -0.00000025007113    5.24575460546220
Cl        3.81873633113854   -0.00000050515655   -4.09224926780722
