62
 energy: -137.542830287397 gnorm: 0.000284854552 xtb: 6.4.1 (a3dbbd7)
C        -1.28928925416222   -0.01311085812856    3.55084684797152
C        -0.36192429965873   -1.19009968023272    3.32332934129608
C         0.98844520324880   -0.73224530416674    3.29145640616330
C         0.98591986964437    0.71145476340605    3.29275632803087
C        -0.36218856211971    1.16039924602435    3.31717455506678
C         2.34423579973541   -2.58576027644082    0.58939807865795
C         3.18680830304779   -1.41662579368259    0.58631504952121
C         2.94854298177901   -0.69681442985289    1.81225717892468
C         1.96039678468035   -1.42161478788086    2.56896838619491
C         1.58993955743673   -2.58689490919199    1.81647165332639
C         3.18383823844903    1.41659770864428    0.58467497343421
C         2.33999622211168    2.58041230331255    0.58419791265576
C         1.57670725283365    2.57064223916382    1.80889357539011
C         1.95348217380067    1.40744021214359    2.56413682712587
C         2.94531575922468    0.69182779022766    1.81251304866290
C        -0.36274219939700    3.42532076791426    0.57661832805888
C        -1.73024903805515    2.98383235264802    0.56791589621525
C        -1.96141994459124    2.25421084948066    1.79959299845259
C        -0.73082076877414    2.25770043625130    2.56672837423877
C         0.25166001569694    2.97893049008399    1.80541775853490
C        -3.40802746050178    0.70432666862433    0.57839412194054
C        -3.36578655821270   -0.68602500031001    0.57215440330254
C        -2.74238215591887   -1.13892776632909    1.81891051323020
C        -2.40845617399192   -0.02193115865417    2.57768920731828
C        -2.76456565613196    1.13329671259114    1.79397379003736
C        -1.73288236737455   -2.99939308966711    0.60888434420315
C        -0.35449352287529   -3.44379865011040    0.59348079903008
C         0.26635699742095   -3.00785014977867    1.81841129179861
C        -0.72215408070306   -2.29200993015293    2.58086633813295
C        -1.95913127329650   -2.31010970791257    1.81656903958935
C        -0.24663498158146   -2.99763299851918   -1.81883593295964
C         0.74726871386799   -2.28410192798713   -2.57656883696061
C         1.97092873694337   -2.28348136120774   -1.81499058611376
C         1.74091309379473   -3.00601583662680   -0.58927124097424
C         0.37075059400584   -3.44617599160936   -0.58407058137486
C         2.79360290648039   -1.16419778750985   -1.81972460533651
C         2.41629741252393    0.00021019182208   -2.57985667693431
C         2.79674385017271    1.16634626897632   -1.82115629060883
C         3.40926760653184    0.72132537990155   -0.59611060540008
C         3.40892605302720   -0.72097015876475   -0.59459562598857
C         1.98121947884539    2.29034852511695   -1.82056627025414
C         0.75000871712016    2.28680458648023   -2.57811528728100
C        -0.23872706232374    3.00018039663907   -1.82032974779065
C         0.37305625180135    3.44513316172657   -0.59840227029103
C         1.74895547919971    3.00982101618240   -0.59788175594075
C        -1.56641935269637    2.56583028905748   -1.81195709057987
C        -1.94337706313366    1.39783098754041   -2.57219387478640
C        -2.94858713138001    0.68919700914118   -1.85005316847365
C        -3.39583768136692    1.51735877740936   -0.66199367667032
C        -2.32638289394173    2.58750481672489   -0.61135238681723
C        -2.93091144415066   -0.68728835961741   -1.83662843596917
C        -1.93648957625179   -1.40741583722388   -2.58728054667649
C        -1.56094581617900   -2.56729415196544   -1.81941716160492
C        -2.33496083230041   -2.56198497402578   -0.59526430981539
C        -3.17205648355250   -1.42889820785057   -0.60928323497622
C        -0.97973063223246   -0.71994671190321   -3.32284811557789
C        -0.98149148767687    0.71577237857832   -3.31481580402073
C         0.38721404259818    1.16407846810454   -3.31038478316470
C         1.23716002193971   -0.00014188502286   -3.31297063580791
C         0.38988055368887   -1.16585623228477   -3.31931141057491
Cl       -1.87565000997214    0.01303000819727    5.28789191453357
Cl       -5.01995466094636    2.29753202389105   -1.00054639400964
