62
 energy: -137.538335270203 gnorm: 0.000096162375 xtb: 6.4.1 (a3dbbd7)
C        -1.30272162452484   -0.00218650151146    3.53583446807700
C        -0.38190288433100   -1.17538121248525    3.32872924966870
C         1.05264569192351   -0.76749857725347    3.53585907769739
C         0.96992066927252    0.72063349112893    3.29191650894654
C        -0.36108369936620    1.15309708982876    3.29190349624509
C         2.33244865028181   -2.58704603572269    0.56620722408917
C         3.16475057361654   -1.42053665552636    0.56956919437556
C         2.90885002964930   -0.70496117940519    1.80855322038246
C         1.96240089381561   -1.41959970170323    2.55882432941550
C         1.57460166873134   -2.56709102854627    1.79228105640414
C         3.16869005465739    1.41196416383802    0.58361977963145
C         2.32647026668936    2.58132639065892    0.57788061235809
C         1.56273961055807    2.57271519846020    1.80154495865265
C         1.93684847679092    1.40799997247580    2.55949767733052
C         2.93069559066012    0.70090238145909    1.81169187096695
C        -0.36488796088181    3.45579981724487    0.57788892950230
C        -1.73359049507093    3.00480709256756    0.58362871746192
C        -1.95899186114839    2.28964681183644    1.81169482987169
C        -0.73932993590175    2.27753389307270    2.55949356451971
C         0.24792956040323    2.99992171271909    1.80154674931727
C        -3.39531410590890    0.71095151360668    0.56956400187012
C        -3.40762029470388   -0.72198403284710    0.56617297838272
C        -2.78275590021205   -1.15130096191611    1.79223327698820
C        -2.42203075963994    0.00497639703136    2.55880867013974
C        -2.76767320836627    1.13944241022188    1.80854845897769
C        -1.73020391115899   -2.99270477050896    0.56822176008516
C        -0.35928781031914   -3.43818255099275    0.56836963883915
C         0.25546073677959   -2.98457144518781    1.78722206894686
C        -0.72512082899747   -2.23168309751540    2.54768096343922
C        -1.96093109647477   -2.26440220490767    1.78713491519490
C        -0.25046731526067   -3.01242499907557   -1.84493877237770
C         0.74225377684332   -2.29127241027445   -2.59778790744930
C         1.96941962717523   -2.29450039387749   -1.83719386934268
C         1.73785853574987   -3.01661869420879   -0.61635021225054
C         0.36762404912533   -3.45824485406712   -0.61363929834341
C         2.78449885965211   -1.16715254822783   -1.83316147418260
C         2.40795507194878   -0.00095157018650   -2.58809622395550
C         2.78551465875023    1.16422906914834   -1.82440218490718
C         3.39603600601460    0.72079067796257   -0.60088247259990
C         3.39264552371659   -0.72450328996081   -0.60446593137299
C         1.96852703384275    2.28860990713273   -1.82587130929976
C         0.74350465116973    2.28829827792452   -2.58432318683447
C        -0.24737221819619    3.00859517000608   -1.82585330378540
C         0.36514130616133    3.45871194105626   -0.60101748190528
C         1.73757157123556    3.01278083518257   -0.60102484672945
C        -1.56922256220995    2.57917334366913   -1.82439181015519
C        -1.94865073013798    1.41460427811350   -2.58810009870009
C        -2.93875820128947    0.69245561040533   -1.83317125739910
C        -3.17057093816926    1.40801406190564   -0.60447063060110
C        -2.32378975954654    2.57927430107334   -0.60087299517698
C        -2.94198572944591   -0.69868712882874   -1.83722891252988
C        -1.94728690796953   -1.41738680578626   -2.59782570236486
C        -1.56802998815807   -2.58432419047718   -1.84500320967509
C        -2.33012479541240   -2.58168979792443   -0.61372495082152
C        -3.17909366362314   -1.41899645301218   -0.61639573839505
C        -0.99176453157575   -0.71886698558882   -3.32331987270409
C        -0.99157844239118    0.72190672023182   -3.31787625718615
C         0.37906822633652    1.16667900469206   -3.31746283061414
C         1.22650958116371    0.00119961323251   -3.31787088367313
C         0.37979805180725   -1.16452268819024   -3.32329831648060
Cl       -1.94875471116040    0.05583565751399    5.26210477804844
Cl        1.60941582277141   -1.10034043089820    5.26210506435818
