63
 energy: -142.094732214794 gnorm: 0.000040163270 xtb: 6.4.1 (a3dbbd7)
C        -1.32573283349114    0.00208852438987    3.58210860924312
C        -0.39411240757793   -1.27987323802253    3.57400429174126
C         0.98703369560607   -0.73246795092593    3.27335130751803
C         0.96379158785695    0.69240252116999    3.25447824317341
C        -0.37490174342251    1.13981646514620    3.28099359285445
C         2.31720129453778   -2.56149280327291    0.56251594401117
C         3.17404914336537   -1.42379669603221    0.56291425383944
C         3.12344156699078   -0.75110794249115    1.91497972736768
C         1.93026678367181   -1.41990591240316    2.56078328680550
C         1.56232106544519   -2.57076713434725    1.79016019132860
C         3.16523729870782    1.41696386565714    0.57586222673877
C         2.32332691964275    2.59478157756386    0.56943085242963
C         1.56476426828186    2.57810998784284    1.78728024967780
C         1.94235623193719    1.39529952976375    2.52099796584429
C         2.93151659699138    0.71423578225889    1.79073968148409
C        -0.37321505951959    3.45278848694553    0.57525171505363
C        -1.74497521090979    3.01046369461463    0.57813083961849
C        -1.97863179139652    2.28849914016127    1.80214195709438
C        -0.74063816061245    2.25707212305948    2.54967349941346
C         0.24167759947380    2.98635082362237    1.79229029076790
C        -3.39684017269316    0.72763586227315    0.57168554688247
C        -3.38696713710505   -0.70809342210493    0.57250694880561
C        -2.76048474779496   -1.13443730722194    1.81175777216310
C        -2.40343169426485   -0.01480279905307    2.55085934303151
C        -2.77544375463281    1.15581749652668    1.79843903616528
C        -1.72120638424905   -3.00638238990204    0.56668294794370
C        -0.35902079575668   -3.45411984024007    0.56113722726706
C         0.24130604231777   -2.99928162156536    1.79011869991512
C        -0.75378740707568   -2.29703466273193    2.54655673253426
C        -1.93099174398594   -2.28426679691672    1.81001082985144
C        -0.24758046796239   -3.01515063628935   -1.84570156635088
C         0.74140019471859   -2.28951315709167   -2.60347358472898
C         1.96835455683148   -2.29072174956682   -1.84394806172516
C         1.73649872460816   -3.01133047204271   -0.62468264400516
C         0.36892065999787   -3.45962997117707   -0.62322139218039
C         2.77770513665579   -1.16283968430825   -1.83232651620431
C         2.39964521467818    0.00653126048821   -2.58575365673517
C         2.78189516688445    1.17040092030490   -1.82760857600674
C         3.39903052330028    0.72912580365817   -0.61185825225664
C         3.38602009477105   -0.72374078939442   -0.60368880901128
C         1.96230849158473    2.30037558440283   -1.83408412287819
C         0.74098675414040    2.29876082536641   -2.58813670614997
C        -0.25507613908697    3.02209406749668   -1.83327290089589
C         0.35726819041920    3.46528256378006   -0.60506351712192
C         1.72997352840552    3.02208715332186   -0.60852702187829
C        -1.57314822271220    2.59220554061101   -1.83202816893733
C        -1.95251745712055    1.42359372077861   -2.59061657007227
C        -2.94527366818731    0.70569978927368   -1.83313571784028
C        -3.18173608628352    1.42569967349062   -0.61075581303628
C        -2.33592840106498    2.59228415274283   -0.60790712453925
C        -2.94076203506601   -0.68700690229602   -1.82901415489810
C        -1.94982880857251   -1.40883007146250   -2.58727559560973
C        -1.56841876697685   -2.57805597060428   -1.83523882133652
C        -2.31398825842000   -2.57624859563896   -0.60631566040943
C        -3.16682537672213   -1.40083410135957   -0.60354088062457
C        -0.99557804369928   -0.71407736824121   -3.31794700424503
C        -0.99597118587618    0.72882461349770   -3.31680593074473
C         0.37450808787233    1.17290341729229   -3.31857840770463
C         1.22013373294478    0.00834890973145   -3.31778377301307
C         0.37390676751815   -1.16052695712097   -3.32164880833957
Cl       -2.10218105966114    0.28877116064398    5.19825864151359
Cl       -0.33247260011328   -2.10197387337708    5.19076123872372
Cl        4.64651993730073   -1.11069580960619    2.86980473702631
