63
 energy: -142.113455962178 gnorm: 0.000110770371 xtb: 6.4.1 (a3dbbd7)
C        -1.29812203048073    0.00807635104449    3.55232421302008
C        -0.36967496702682   -1.16894390655013    3.31560227871349
C         0.98175805418535   -0.71775911768755    3.28551619095146
C         0.97881196657980    0.72290390336306    3.27625636686678
C        -0.37256466138818    1.18262191558384    3.30681789554343
C         2.33483902803464   -2.57549038118643    0.58795061177678
C         3.18364524831032   -1.41786443702271    0.58942284041894
C         2.95028938920916   -0.69600845887567    1.81265734436517
C         1.95295827691168   -1.41432020326148    2.56792815230284
C         1.57830252635866   -2.57389576366948    1.81414338701593
C         3.18320929219799    1.41143905575071    0.57998119317116
C         2.33735469824267    2.57830708619096    0.58088814585120
C         1.57501498744702    2.56855875380328    1.80257644391406
C         1.95107200405620    1.41098436816479    2.55619313504125
C         2.94797321549027    0.69133437585770    1.80748440405959
C        -0.36645381320670    3.43182152812496    0.58306472855018
C        -1.73126696088842    3.02144105654850    0.58589646151924
C        -2.09599324669992    2.46536306010951    1.94992823937639
C        -0.73175502208682    2.28843152838421    2.58486612144349
C         0.24630551272957    2.97905698529456    1.80741971912777
C        -3.37501563251173    0.70724807964019    0.58133106149325
C        -3.38563554512762   -0.72907853395966    0.57267655709013
C        -2.76678271851444   -1.16030600538732    1.79658101275740
C        -2.38961977421640    0.02576315637285    2.53798231571607
C        -2.74841957265962    1.13250506421530    1.81446298588855
C        -1.73368501260197   -3.00811891932382    0.59222262656315
C        -0.36478943381134   -3.43749810180662    0.59086925833578
C         0.25136137306065   -2.98897182549321    1.81400558353730
C        -0.73074297353964   -2.27093651114669    2.57661545681177
C        -1.97365078806216   -2.28745109578982    1.81123345201558
C        -0.25000741457469   -3.02504477973815   -1.82175547091027
C         0.80146627818203   -2.45607530282970   -2.74915793259702
C         1.98566825697460   -2.29804867673206   -1.82148552218745
C         1.73436241376661   -2.98585967506676   -0.60021075274085
C         0.36007390961397   -3.42912586615352   -0.59808401838751
C         2.78234392912271   -1.17314241163576   -1.81695682474856
C         2.41724407146631    0.00287222151824   -2.58552380739397
C         2.79031072122277    1.15981852529193   -1.82879706105560
C         3.40350487921177    0.71501873938628   -0.60051884969242
C         3.39829002053721   -0.72479505963792   -0.59695107046587
C         1.98031019329040    2.29538144607675   -1.82561305481261
C         0.75032499639761    2.29833413405667   -2.58116214066458
C        -0.23821454940191    3.01825244437058   -1.82045398500613
C         0.37207579573651    3.45109307284591   -0.59744212666393
C         1.74563018847412    3.00692096678905   -0.60071259010584
C        -1.55941633742840    2.58208097708283   -1.80702259484630
C        -1.94089157539238    1.41830660464395   -2.56722659260050
C        -2.93798991700709    0.69470813493562   -1.81650072460230
C        -3.16915061840615    1.40217908711501   -0.59548649787090
C        -2.30753792190010    2.58185608316753   -0.58196348373192
C        -2.93232809708522   -0.70504025839275   -1.83267447883367
C        -1.95168890013982   -1.41880226811169   -2.58895784441097
C        -1.55531720828170   -2.58780732775989   -1.81989212880135
C        -2.31921589523478   -2.58663735569017   -0.60041657742441
C        -3.16819351622196   -1.42722741164767   -0.60778778105912
C        -0.97201595283822   -0.71867927455856   -3.29541997511113
C        -0.98723739215436    0.73018469803178   -3.29781502500446
C         0.37919153499823    1.17379069369152   -3.30108786774045
C         1.21511499132286   -0.00558252284530   -3.29495230782764
C         0.37687216273326   -1.15130664522298   -3.31821010269330
Cl       -1.95914258574042   -0.00051333343697    5.23997112558276
Cl       -3.13804043748801    3.62257941751242    2.87685165494310
Cl        1.18722549613769   -3.64756802163386   -4.09207303608382
