62
 energy: -137.536896310797 gnorm: 0.000180524389 xtb: 6.4.1 (a3dbbd7)
C        -1.30117785432692    0.00363502884079    3.53024017889614
C        -0.37139968974105   -1.17022083611804    3.31136517906840
C         0.97763007041415   -0.71225302503973    3.28870836245405
C         0.97467878645527    0.73011143789848    3.28847587084253
C        -0.37616042553652    1.18120400308806    3.31293183137998
C         2.34475548870626   -2.57745831580696    0.60356753079500
C         3.15921175768806   -1.41501570884912    0.58745610004546
C         2.93598949303805   -0.68270190794890    1.81632864194781
C         1.94737745822183   -1.40152973258608    2.56579420265116
C         1.57879303497315   -2.56480138841300    1.79620474279591
C         3.17766404773437    1.42581641052075    0.58674726050923
C         2.33386862713327    2.58640101632456    0.58462087672161
C         1.57372760734198    2.58644775396298    1.81139514454970
C         1.94711447054606    1.42499721649218    2.56835879850018
C         2.93744367245183    0.70339248282062    1.81514980962693
C        -0.36531281143911    3.44895884651200    0.58306941345304
C        -1.73650051130088    3.00591666590104    0.58573567879919
C        -1.97470706230635    2.29693029336495    1.80874795496622
C        -0.73841048282473    2.28187912498020    2.56823563157606
C         0.25007456313399    3.00168424667549    1.80830713132538
C        -3.40189311242496    0.72531557844560    0.57347246558486
C        -3.39996365867135   -0.70750897129260    0.57349028289119
C        -2.77262293307381   -1.14084248062723    1.80723462096092
C        -2.42854598911209    0.00598622711233    2.56226934612543
C        -2.77627082416466    1.15657739532456    1.80699639644887
C        -1.73085594922468   -2.98390054523618    0.58947499410152
C        -0.35873330719683   -3.43249631065859    0.58191445099679
C         0.25259871916433   -3.00467744304804    1.81938493438042
C        -0.72910713126596   -2.27613783635164    2.56696084537146
C        -1.97065966641324   -2.28417132604840    1.80782125792926
C        -0.24269599950449   -2.98907815336055   -1.79448912141536
C         0.74816150755671   -2.26878589743060   -2.55726217366771
C         1.97565702425578   -2.28712490358968   -1.83276424930200
C         1.85201117443005   -3.21448511219852   -0.64443028162297
C         0.35963501390976   -3.45909689492850   -0.59500762073715
C         2.77560729888407   -1.16515218896882   -1.82088264543429
C         2.39975965012074    0.00168085269914   -2.57496667933346
C         2.77950589189191    1.16384683938675   -1.81821430177203
C         3.39699602239734    0.71872779635851   -0.59383063863534
C         3.40638341492973   -0.71568694881372   -0.59358932899236
C         1.96675708032796    2.29170176969444   -1.81946281529929
C         0.73888012361280    2.29445526837707   -2.57961406694953
C        -0.25001306544011    3.01743697447625   -1.82574550014526
C         0.36413805805987    3.45541251271448   -0.59659316270919
C         1.73689207048572    3.01347028436937   -0.59816928108130
C        -1.57379160544089    2.58925074419432   -1.82410781239207
C        -1.95317363219427    1.42487558322282   -2.58593325147221
C        -2.94932796393165    0.70406565386127   -1.83093026411959
C        -3.18034262141944    1.42345924560078   -0.60516753136877
C        -2.33277630832251    2.58999033088688   -0.60412083287582
C        -2.95030289716936   -0.68498478504342   -1.83173071467005
C        -1.95272245995366   -1.40540963188588   -2.58113582527330
C        -1.57514071616919   -2.56743044719399   -1.81211107740030
C        -2.33248993284102   -2.56778154858694   -0.60216075045153
C        -3.18348291697268   -1.40556813052686   -0.60456795406637
C        -0.99618173352793   -0.71223636103735   -3.30738920579607
C        -0.99781391702152    0.72978608640513   -3.31296813744657
C         0.37471204888462    1.17396083939306   -3.31360925368856
C         1.21850592296558    0.00700689822479   -3.30954159281058
C         0.37662835338110   -1.15368067826821   -3.30450438518403
Cl       -1.92815435910315   -0.01272979386933    5.25438852739056
Cl        2.75209373845875   -4.78325813326979   -0.96973603028304
