72
 energy: -177.490726983152 gnorm: 0.002040763604 xtb: 6.4.1 (a3dbbd7)
C        -1.29305356895301    0.00709075407569    3.55251311179111
C        -0.36355703577151   -1.16842998184869    3.29431265296431
C         0.98485939075208   -0.71875385021139    3.26200082724271
C         0.97649014425561    0.73242261324111    3.28275574287531
C        -0.34779177028891    1.18597537190740    3.31467396257342
C         2.32962470608009   -2.55179349656625    0.56595603352667
C         3.19504681264045   -1.42340602163668    0.56537380203181
C         3.17226243938828   -0.75240313375497    1.93935340836219
C         1.95524456171661   -1.42297068667692    2.56919104139382
C         1.56555002310240   -2.54110441348052    1.79160096386613
C         3.16610439632999    1.41954621974067    0.57246668960502
C         2.33523448106437    2.59869137191455    0.56330763163066
C         1.57866670385620    2.59444847676119    1.78578021561317
C         1.96031783726773    1.41206999113324    2.53075216578994
C         2.93461342579513    0.72367654426737    1.80231199542813
C        -0.35410543569353    3.46470813265124    0.56875934632442
C        -1.72098061631349    3.01257181630643    0.58471938527526
C        -1.94270680034141    2.30760516608985    1.81506539529809
C        -0.73066400166625    2.29852703625153    2.56240829395233
C         0.26466296033408    3.01426203661159    1.79049565396568
C        -3.36942445170781    0.69773548052700    0.56377927727565
C        -3.41446548898686   -0.70134382958226    0.57705449234793
C        -2.77290195088670   -1.13628465893535    1.77684686897038
C        -2.41509007525904    0.02115365546813    2.55301605583513
C        -2.74548649844583    1.14468325476822    1.81145020408433
C        -1.74066620126936   -2.98459375810938    0.55811718425943
C        -0.36904882024754   -3.41876842860852    0.56416413603027
C         0.24117781365330   -2.97602582852878    1.78921437248268
C        -0.74263178341857   -2.26413599681191    2.54863252155803
C        -1.98248463882322   -2.27509290948735    1.79427472992267
C        -0.24507538733923   -3.00388108820908   -1.83356481666528
C         0.74794512988229   -2.28504766899109   -2.59265021382577
C         1.97336856093325   -2.28818324281846   -1.83466541369778
C         1.74019720421674   -2.99770884040112   -0.61522357884727
C         0.36445615455376   -3.43970383787034   -0.61514958663620
C         2.78729682312587   -1.15723411042874   -1.82519358465028
C         2.41491425291431    0.00470883035715   -2.58600292122197
C         2.79626446338172    1.17260116577781   -1.82866107329543
C         3.41296337276740    0.73502403091469   -0.60859625419815
C         3.39813063806368   -0.71982541361357   -0.60052171823037
C         1.97566793246696    2.29711159074948   -1.83766818212461
C         0.75279434633464    2.29394223481228   -2.59635001511102
C        -0.23937918842075    3.01433283707318   -1.83837278720005
C         0.37503351861344    3.47239950817050   -0.61330496141032
C         1.74333964166790    3.02766878103749   -0.61590199103196
C        -1.55452848438799    2.57595174609652   -1.82812654779891
C        -1.93182383940902    1.41254819828337   -2.58963024675439
C        -2.92539851572274    0.69188048603141   -1.83998450269702
C        -3.16792273774061    1.42488390085393   -0.61273168243427
C        -2.31651595674149    2.57287962342817   -0.60207776494877
C        -2.94885694167113   -0.68686808339306   -1.86670481757540
C        -1.94541351842749   -1.39535531918797   -2.58252667817239
C        -1.57221755180828   -2.56489408150545   -1.82301090787375
C        -2.33592673861675   -2.59501789266782   -0.62728998984981
C        -3.41965107909911   -1.52377030279106   -0.67902985699938
C        -0.98146529250734   -0.71030837337241   -3.32407642305458
C        -0.97748539014830    0.72448850730438   -3.32782346825056
C         0.39207478594107    1.17205442919890   -3.33273323178598
C         1.23704988919563    0.00551854693400   -3.32164516468862
C         0.38629990544898   -1.15916415622906   -3.31974890770653
C        -1.82797157140171    0.00216618659559    4.99255032915065
F        -0.84087671541898    0.00484060501827    5.89521707919573
F        -2.57851179360181   -1.07616701423708    5.23933129582489
F        -2.58615105319306    1.07419540442565    5.24213425966887
C        -4.80237726934368   -2.13886501831227   -0.94494358981044
F        -4.81974490517182   -2.86723768187090   -2.06787698765153
F        -5.74517254586792   -1.20068529104667   -1.07660761887776
F        -5.18685249055874   -2.94659338109176    0.04795396864789
C         4.46242449331747   -1.03972831869969    2.72302888574482
F         4.68481537179367   -2.35156317692515    2.85756566149555
F         5.53650957017966   -0.52227233905626    2.11573393364317
F         4.42182389140293   -0.52140740593417    3.95435243059153
