63
 energy: -142.097957136260 gnorm: 0.000127602611 xtb: 6.4.1 (a3dbbd7)
C        -1.29466011552548    0.00393297941900    3.52784053780907
C        -0.37014703007015   -1.17033274521748    3.29079179648231
C         0.98436357276410   -0.72726998901721    3.26864631235836
C         0.98442900866965    0.72271833736118    3.28912676316092
C        -0.35776125131614    1.17388990230304    3.30444464777459
C         2.32682606320551   -2.56551433911794    0.57630454878489
C         3.19141802308142   -1.43185162613227    0.57758770668681
C         3.14892595200706   -0.75996982714256    1.93350904420854
C         1.95270562079605   -1.42773609957474    2.57209444376675
C         1.56621228029410   -2.55530956821168    1.80301332000310
C         3.17001441250646    1.40548204228134    0.59009849035148
C         2.33733956243532    2.58879304910041    0.58569372385076
C         1.58584407655015    2.58398625705254    1.80565481027608
C         1.95986072595162    1.40199806361898    2.54537761958909
C         2.94814729724056    0.70554319387975    1.81082081267321
C        -0.36095667329313    3.43778838036240    0.58713833896712
C        -1.73369152853630    2.99719717970931    0.60989333736979
C        -1.95147488071693    2.29638667290711    1.78820205930603
C        -0.72308320456740    2.28241529710012    2.56592237249309
C         0.26383750327673    3.00128695577710    1.81007915689354
C        -3.39060048462316    0.70710797891472    0.56159495125297
C        -3.39697403699022   -0.72796413803822    0.56135405076057
C        -2.77827639743365   -1.15809252784718    1.78717537627178
C        -2.41570694931161    0.01785189048245    2.54402519814726
C        -2.77397555095686    1.13643876684267    1.81631401239800
C        -1.74479942659220   -3.00834758172337    0.57584949450768
C        -0.37176644258477   -3.44187347188411    0.57819644373049
C         0.24087863964132   -2.98859890250830    1.80232720778063
C        -0.73977105765732   -2.27291977213757    2.55679750746406
C        -1.98429482072383   -2.28824159955651    1.79589882557213
C        -0.25256316252893   -3.02103055746110   -1.83018840435182
C         0.74356946936058   -2.30133140633673   -2.58714197443309
C         1.96536007104565   -2.29965234441245   -1.82469853915199
C         1.73221551189370   -3.00874888646196   -0.60215416637037
C         0.35913274297336   -3.45479069062424   -0.60062772033180
C         2.77975146821527   -1.17020174884953   -1.81540647122603
C         2.40349873615167   -0.00819903218936   -2.57156035291456
C         2.78469742141089    1.16029512899775   -1.81162223483118
C         3.40753790822777    0.72154209558136   -0.59825656984495
C         3.39396744840203   -0.73192853160728   -0.59031705067200
C         1.96138005871195    2.28368307218557   -1.81463156706714
C         0.73447031455509    2.27493482259001   -2.56735400874951
C        -0.26082314103159    2.99209612913476   -1.81876960934821
C         0.36670987042591    3.45814809910485   -0.58778603608246
C         1.73278424355503    3.01141128960978   -0.59412670480767
C        -1.57138876992925    2.57941584300502   -1.83172288310046
C        -1.93567763096334    1.40967032400383   -2.56407663381125
C        -2.93025843630617    0.68668260296496   -1.81387915421745
C        -3.18765554183644    1.40064644570084   -0.60361440216927
C        -2.49726696040147    2.74797164237970   -0.64525813040404
C        -2.93985545723843   -0.70656993205681   -1.83314547629132
C        -1.94860131986518   -1.42639145618201   -2.59310017328530
C        -1.57475415917459   -2.59588384384341   -1.83576059112359
C        -2.33986496890112   -2.59731547123494   -0.61498829485855
C        -3.18207517683052   -1.43144562633778   -0.61819209104617
C        -0.99004175141438   -0.73024992223355   -3.31427091995008
C        -0.98563440428951    0.71142406117271   -3.30717457901491
C         0.37770919261829    1.15383122015163   -3.30926060031822
C         1.22772110130704   -0.01015256993740   -3.30956798579598
C         0.38125931887115   -1.17631731924168   -3.31483191584222
Cl       -1.92657284253552   -0.00314501436078    5.23706547122386
Cl       -3.70613721157949    4.08128660668148   -0.94773702995568
Cl        4.68488284776507   -1.11706523019804    2.87609246727225
