62
 energy: -137.544063265266 gnorm: 0.000130385813 xtb: 6.4.1 (a3dbbd7)
C        -1.29720947061827    0.00614605812971    3.53438158042756
C        -0.37295594541210   -1.17035291840739    3.31015664986934
C         0.98056708792396   -0.72105747151598    3.28702884330133
C         0.98586673372334    0.72169683687617    3.29002847351571
C        -0.36582689319326    1.17935868948428    3.31375248508049
C         2.32901942866563   -2.58147420935943    0.58990506289015
C         3.17750374081684   -1.41334865179032    0.58813022000007
C         2.94963021574207   -0.69552477183384    1.81578590622225
C         1.94829091853201   -1.41573637142113    2.56628296072457
C         1.57420895473965   -2.57611755197838    1.81368378427996
C         3.19073384729355    1.41928675199665    0.59704750702937
C         2.35176847485025    2.58878235527570    0.60447503069395
C         1.59312251897658    2.58538661026800    1.82840092948013
C         1.96022183947796    1.41407556043482    2.57598388523775
C         2.95121605263074    0.69097046953762    1.81961335065565
C        -0.34721595252279    3.44310292879604    0.59960243113645
C        -1.72944583602494    2.99806462247614    0.60752805816511
C        -1.95980382522135    2.30282145295652    1.80610864308654
C        -0.72311643837902    2.28297906306692    2.57636622466567
C         0.26892362710386    3.00519573538432    1.82633594476965
C        -3.39216379723856    0.70430371225907    0.57302358314732
C        -3.40295520621568   -0.73345876887705    0.57560747998230
C        -2.77961563497049   -1.16131338765423    1.80038891076042
C        -2.41592704002390    0.01383855997938    2.55427204357099
C        -2.76504413712733    1.13921602006029    1.81287190542500
C        -1.74164181348754   -3.01015617625955    0.59155890447872
C        -0.36743277374579   -3.44955251458058    0.59359186073038
C         0.24502011542868   -2.99470082927452    1.81384942418463
C        -0.73633183568438   -2.27204804167396    2.57174680378751
C        -1.98152204301270   -2.29029550103522    1.81151928825269
C        -0.25016153306353   -3.02035518862697   -1.81500420921662
C         0.74428768147411   -2.29065935063058   -2.56552339482701
C         1.96346921493631   -2.29346526892261   -1.81287630041247
C         1.73522571821741   -3.01289842977964   -0.58907208636672
C         0.36206133223078   -3.45883384091084   -0.58730584180072
C         2.77235575297782   -1.15870934196810   -1.81305328763793
C         2.38833311025679   -0.00209604873340   -2.57098023426620
C         2.79044457858885    1.17655994477236   -1.81079310443385
C         3.40095594119285    0.72599985681068   -0.59081166166872
C         3.39419680173619   -0.71674810652230   -0.59279153186526
C         1.96338392503487    2.28449690440928   -1.79968744881386
C         0.73338310095640    2.30174082535849   -2.55360963085998
C        -0.22903080191186    2.98162573958945   -1.81223815645220
C         0.37838235191463    3.44370501368872   -0.57243612096987
C         1.74909975817864    3.00962561309852   -0.57497476604576
C        -1.58448967038166    2.57535538036652   -1.80552612927339
C        -1.94784883250685    1.39306402106098   -2.57577201242925
C        -2.94133053437043    0.67282414761271   -1.82575063898760
C        -3.16740029034514    1.39416294383034   -0.59904066997150
C        -2.31697157771779    2.57118512598743   -0.60697695745712
C        -2.95128559977589   -0.71630362669426   -1.82776592092080
C        -1.95074208070707   -1.42746337131864   -2.57531649572902
C        -1.56928352080956   -2.59338745586007   -1.81888300565225
C        -2.33598996165446   -2.59603422323006   -0.59632954712472
C        -3.18895223566074   -1.43671215406422   -0.60382016701303
C        -0.99110123105067   -0.71481726839713   -3.28934555174869
C        -1.00858783192484    0.71215991998917   -3.31300759962725
C         0.39501832329583    1.23537090354955   -3.53356946672957
C         1.22825194069384   -0.00721073292707   -3.30933888413467
C         0.38267270046022   -1.15564915458913   -3.28630590288038
Cl       -1.94399528187749    0.01037875986022    5.24738141546541
Cl        0.59090610717692    1.85171077605758   -5.24692431042504
