63
 energy: -142.094800859605 gnorm: 0.000056216810 xtb: 6.4.1 (a3dbbd7)
C        -1.33254937139587    0.00398884530784    3.59328281163378
C        -0.39847122861590   -1.28107882174887    3.59116196638077
C         0.97614982506703   -0.72788347732258    3.28747061836505
C         0.95857404454683    0.68730153369004    3.25166118534892
C        -0.38509126967590    1.14465364640168    3.29000357028904
C         2.32828039930703   -2.58276321562237    0.56239067039734
C         3.16754596270513   -1.42326716757705    0.56648227516552
C         2.90787556277375   -0.68507003396376    1.78872643269949
C         1.91887008296917   -1.39952574544624    2.54148830304377
C         1.56731177911787   -2.59072626566917    1.78587676276106
C         3.39270812258949    1.52046832721326    0.62278496365873
C         2.33207394708106    2.60032006825548    0.57800567450008
C         1.56396036132293    2.55842732302449    1.77751458657373
C         1.93434085128430    1.38768741951358    2.52063915754955
C         2.93966838272608    0.69378468034383    1.80609822675323
C        -0.37845239399378    3.44234577506237    0.58459995914522
C        -1.75077499251356    3.00843276824209    0.58382998131557
C        -1.98774018828793    2.28543576139801    1.80689453490120
C        -0.74360708399541    2.25409191923585    2.55765499541720
C         0.23564768022289    2.97736008469453    1.79595627541211
C        -3.40257177933202    0.72497247526849    0.57670658858506
C        -3.38570424923196   -0.70792023673166    0.57881348268066
C        -2.75653542497299   -1.13162900351939    1.81996670118656
C        -2.40940855616306   -0.01632882701986    2.56035131605026
C        -2.78271248911876    1.15674252551181    1.80409356789714
C        -1.70931053511596   -3.00765025472495    0.57086426336487
C        -0.35261936372480   -3.46557497857245    0.56414573121807
C         0.25281983494010   -3.00671053198775    1.78880984446263
C        -0.74829963361772   -2.29303395561607    2.55128780261498
C        -1.91775088111721   -2.28171512606301    1.81681160454075
C        -0.24260138409145   -3.01847940693369   -1.84307077338773
C         0.74355284649140   -2.29468253104430   -2.60643657675138
C         1.97138450112423   -2.29525466466953   -1.84889113284626
C         1.74235580342854   -3.02680461344530   -0.62536421156079
C         0.37768668458349   -3.46858305040167   -0.62221030696138
C         2.77622302983040   -1.16855155130368   -1.84500657800724
C         2.39588980016275   -0.00385949519331   -2.59424618018765
C         2.77410894897800    1.15496552707792   -1.81618040146009
C         3.39988107925188    0.71296151944215   -0.62404844338862
C         3.37865529771554   -0.70631211716824   -0.61090881434976
C         1.96457675304561    2.29540066790094   -1.83645686637215
C         0.74526788364418    2.28888841217597   -2.58089849194188
C        -0.25303740375178    3.00717318609241   -1.82209858838501
C         0.35816291295320    3.44433174660867   -0.59283118928417
C         1.73004151265938    3.00418932645907   -0.59281586312142
C        -1.57268134681996    2.58531753791629   -1.82720717430740
C        -1.95372074986753    1.41958155091085   -2.58904834623979
C        -2.94356629941756    0.70116191116465   -1.83001150816565
C        -3.18345848955908    1.42353857085705   -0.60656167415816
C        -2.33959846708389    2.58779879574069   -0.60391569810067
C        -2.93608486292938   -0.69027115851583   -1.82301124385339
C        -1.94634384826441   -1.41275640223255   -2.58447650631798
C        -1.56165988395600   -2.58056215916337   -1.82999471614758
C        -2.30422218608189   -2.57656955366898   -0.59865439841680
C        -3.15721216315317   -1.40103161406319   -0.59548209519085
C        -0.99703162129691   -0.71992908630912   -3.31928481050211
C        -0.99534530552274    0.72373609012511   -3.31627702828416
C         0.37240257425936    1.16593679259239   -3.32131574893941
C         1.21767434493705    0.00061790704060   -3.32578868672068
C         0.37359979243019   -1.16839365017720   -3.32820657584401
Cl       -2.10455608691820    0.29656194114278    5.20730850229963
Cl       -0.36629010452185   -2.11739400651203    5.19840518251858
Cl        5.04731365688893    2.24985437950824    0.93280172802771
