62
 energy: -137.535279303192 gnorm: 0.000164072077 xtb: 6.4.1 (a3dbbd7)
C        -1.30023832338351    0.00000000000017    3.54192235170831
C        -0.37413136896574   -1.17394627619863    3.32110458916738
C         0.97823748605164   -0.72150466631936    3.29059541800596
C         0.97823748605160    0.72150466631975    3.29059541800600
C        -0.37413136896581    1.17394627619907    3.32110458916761
C         2.33503396657156   -2.58175477341257    0.59262311396995
C         3.18138696219241   -1.41498063256338    0.59477338161956
C         2.94406036622401   -0.69442345877343    1.81964905293674
C         1.94891991703331   -1.41548194723222    2.57266072499103
C         1.57558860684197   -2.57701269870180    1.81497014719633
C         3.18138696219240    1.41498063256345    0.59477338161948
C         2.33503396657158    2.58175477341266    0.59262311396979
C         1.57558860684199    2.57701269870200    1.81497014719618
C         1.94891991703330    1.41548194723249    2.57266072499098
C         2.94406036622398    0.69442345877360    1.81964905293671
C        -0.36418055752107    3.44159157480916    0.58995820204859
C        -1.73881328136824    3.00073377341279    0.59528705041840
C        -1.97338817152567    2.29069264029806    1.81690121040449
C        -0.73565916705139    2.27459022629254    2.57490645956480
C         0.25029742064855    2.99500337119358    1.81489987293465
C        -3.40257875590162    0.71715219219060    0.58459370667944
C        -3.40257875590162   -0.71715219219030    0.58459370667946
C        -2.77506071617298   -1.14907400510423    1.81543035979391
C        -2.42336056090527    0.00000000000023    2.57115987719587
C        -2.77506071617302    1.14907400510463    1.81543035979389
C        -1.73881328136831   -3.00073377341257    0.59528705041858
C        -0.36418055752115   -3.44159157480901    0.58995820204880
C         0.25029742064852   -2.99500337119335    1.81489987293480
C        -0.73565916705138   -2.27459022629219    2.57490645956482
C        -1.97338817152569   -2.29069264029769    1.81690121040457
C        -0.25066127508501   -2.99506248283619   -1.81423603612381
C         0.73526930697783   -2.27462700925172   -2.57422990577258
C         1.97301070823629   -2.29065323016349   -1.81619763820738
C         1.73845127287650   -3.00075733551162   -0.59461666630904
C         0.36382548368953   -3.44164056932915   -0.58928542489214
C         2.77472990392701   -1.14908784646141   -1.81466931997383
C         2.42287812731418   -0.00000000000006   -2.57030105863505
C         2.77472990392704    1.14908784646132   -1.81466931997390
C         3.40232892596756    0.71716453894813   -0.58391070791246
C         3.40232892596756   -0.71716453894815   -0.58391070791243
C         1.97301070823634    2.29065323016341   -1.81619763820753
C         0.73526930697788    2.27462700925162   -2.57422990577274
C        -0.25066127508493    2.99506248283617   -1.81423603612401
C         0.36382548368960    3.44164056932919   -0.58928542489236
C         1.73845127287655    3.00075733551163   -0.59461666630924
C        -1.57594947192937    2.57705898637251   -1.81431208608154
C        -1.94929918716941    1.41552770910497   -2.57203759404523
C        -2.94440715279414    0.69442936461638   -1.81899824744033
C        -3.18169370739965    1.41495343380604   -0.59410660896690
C        -2.33538788386162    2.58175407317731   -0.59196207908726
C        -2.94440715279415   -0.69442936461631   -1.81899824744031
C        -1.94929918716945   -1.41552770910499   -2.57203759404516
C        -1.57594947192944   -2.57705898637249   -1.81431208608138
C        -2.33538788386169   -2.58175407317716   -0.59196207908710
C        -3.18169370739968   -1.41495343380586   -0.59410660896682
C        -0.97863137891042   -0.72151824697788   -3.28995242896293
C        -0.97863137891040    0.72151824697778   -3.28995242896296
C         0.37374228704372    1.17394173493844   -3.32032059684271
C         1.29988790626734   -0.00000000000008   -3.54098374030525
C         0.37374228704369   -1.17394173493858   -3.32032059684262
Cl       -1.94495834465738   -0.00000000000348    5.26842952108643
Cl        1.94486939164168   -0.00000000000034   -5.26757398783984
