63
 energy: -142.101569301326 gnorm: 0.000168005109 xtb: 6.4.1 (a3dbbd7)
C        -1.29476103546624    0.00029771631675    3.54576306497263
C        -0.36653969692795   -1.17298606448960    3.31440314327867
C         0.98551348032761   -0.71822190883150    3.28943870795711
C         0.98314135074692    0.72298919249853    3.29210298560091
C        -0.36743604012185    1.17567828300412    3.32225524087128
C         2.33993611129633   -2.57475065027908    0.59385198435776
C         3.19103097644131   -1.41053353941584    0.59288119228859
C         2.95323727759621   -0.68988261114926    1.81927060786600
C         1.95973531336351   -1.41092972901058    2.57185069042184
C         1.58713518207341   -2.57185586258310    1.81515667350836
C         3.18772517132162    1.42001060916706    0.59184046098646
C         2.33641905650380    2.58303973235295    0.59098148809769
C         1.57980997624343    2.58024211451159    1.81910356928618
C         1.95391509986278    1.41841708803380    2.57001591901932
C         2.94847551006714    0.69863510633610    1.81749754912121
C        -0.36187450116871    3.44229714731461    0.59819792952600
C        -1.72816275809573    3.00103360622993    0.59881973760428
C        -1.96947027383807    2.29199493008653    1.82109331707169
C        -0.73094740026151    2.27796097870666    2.58174750993447
C         0.25505817460774    2.99826577423260    1.82124661939872
C        -3.39850825183754    0.72665334869964    0.58932863719138
C        -3.40188622240032   -0.70195948442394    0.59502762992673
C        -2.77672939788106   -1.13815436095187    1.82605917579893
C        -2.42018135720088    0.00027590763765    2.57382439727040
C        -2.77303024274252    1.15970857398524    1.82092018891865
C        -1.73930327003615   -2.99104142573700    0.59945670219819
C        -0.34759951865698   -3.43107354184480    0.58251907614519
C         0.26088986346122   -2.98675556005066    1.80449307996424
C        -0.72819225231510   -2.26951237219071    2.56605034599119
C        -1.96767832416177   -2.28844176233219    1.80984836933307
C        -0.24723022471508   -3.21599795755490   -1.94310483243739
C         0.76378477731493   -2.28547614879525   -2.58025472041898
C         1.96611130162049   -2.27547715511474   -1.81092187529947
C         1.72876055395629   -2.99381344206581   -0.58502881985349
C         0.37649343617642   -3.45542534710942   -0.58368269187982
C         2.80260993700078   -1.15983914397461   -1.81187888473716
C         2.43357539159563    0.00169452576469   -2.56893507556005
C         2.81014233737258    1.16850261836579   -1.81583781929225
C         3.41852312214021    0.72668821208841   -0.58910743583016
C         3.41797449895855   -0.71772551374090   -0.58647198127303
C         1.97348584705862    2.28413967903736   -1.81445501693142
C         0.75416410510900    2.28316474042061   -2.57452741327971
C        -0.25387096921165    2.99973641858414   -1.80843257660814
C         0.36177768612683    3.43806257706001   -0.58644666502739
C         1.73685264437537    3.00003998452894   -0.58920991569695
C        -1.57008099421967    2.59339976257625   -1.81505942097908
C        -2.09027655459604    1.52072564372966   -2.74966902143239
C        -2.95853936897339    0.70086783578502   -1.81895940018080
C        -3.16360884760233    1.41269010347680   -0.59896482475172
C        -2.30896276795051    2.57297896780947   -0.59904803464057
C        -2.93832235191958   -0.67227607979664   -1.80476946637915
C        -1.93772991175160   -1.42453099184877   -2.55805601024723
C        -1.57748927675874   -2.55251930936961   -1.81825133976071
C        -2.31109384663958   -2.55155773735777   -0.59551246990348
C        -3.16891656746546   -1.38962594823202   -0.58497346520253
C        -0.98200289387996   -0.69408486535941   -3.29670292589647
C        -0.97881527452610    0.69772410125117   -3.30515644504780
C         0.38472131114071    1.15247993310026   -3.28423929323753
C         1.24330254246216   -0.00370194755465   -3.28576284390046
C         0.40079259720331   -1.16480259478956   -3.28382894346975
Cl       -1.92464500462925   -0.00829691560624    5.26585502583166
Cl       -0.37272026544287   -4.77362720774072   -2.88110118378123
Cl       -3.08735252804113    2.25301018672904   -4.09271397424214
