63
 energy: -142.116023780972 gnorm: 0.000077635632 xtb: 6.4.1 (a3dbbd7)
C        -1.31074040276276    0.00000000015738    3.58537338865606
C        -0.38675337445287   -1.16601316281961    3.29415417936719
C         0.96769310911927   -0.71991545208056    3.27826600247705
C         0.96769310867682    0.71991545450891    3.27826600326113
C        -0.38675337541004    1.16601316505335    3.29415418274354
C         2.33185668482395   -2.57932253129814    0.59335356236141
C         3.17375639458908   -1.41622367612271    0.59089227113320
C         2.93797832301692   -0.69350905747470    1.81428687835153
C         1.94203280277492   -1.41510269103435    2.56763329357103
C         1.57201607442331   -2.57857802547960    1.81692134184650
C         3.17375639393395    1.41622367762985    0.59089227069194
C         2.33185668387550    2.57932253251593    0.59335356145870
C         1.57201607360444    2.57857802706613    1.81692134117173
C         1.94203280216502    1.41510269314505    2.56763329354411
C         2.93797832251336    0.69350905951750    1.81428687824226
C        -0.36584739773749    3.43331847233161    0.58351758510753
C        -1.73692539722863    2.99231918778534    0.58017979302492
C        -1.98124134853766    2.27381065294102    1.79909446679333
C        -0.74084961680102    2.27436068974273    2.57079799487046
C         0.24411772695627    2.99164315392236    1.81232986463194
C        -3.37145117755436    0.71951488664775    0.57865868919039
C        -3.37145117797022   -0.71951488693087    0.57865868993401
C        -2.78578007336426   -1.16588871246429    1.80195460947663
C        -2.63819562640282    0.00000000120743    2.75864654202419
C        -2.78578007150705    1.16588871293393    1.80195460743598
C        -1.73692539694196   -2.99231918753551    0.58017979450925
C        -0.36584739714828   -3.43331847188368    0.58351758631866
C         0.24411772785700   -2.99164315278388    1.81232986517128
C        -0.74084961622848   -2.27436068834689    2.57079799424080
C        -1.98124134899813   -2.27381065210419    1.79909446796381
C        -0.24115193383979   -2.99949809918812   -1.82828484869458
C         0.74753551720165   -2.29187087833704   -2.58427547335973
C         1.97770132533488   -2.27637558901158   -1.81286213323622
C         1.73743083833401   -2.99529850941465   -0.59132724409136
C         0.36637946917396   -3.43846415581029   -0.59431365066904
C         2.80614148399635   -1.17454410925140   -1.82019112830248
C         2.58957485512450   -0.00000000008300   -2.74795767521801
C         2.80614148368971    1.17454410955701   -1.82019112877277
C         3.38412249053703    0.72190374460933   -0.59946469155465
C         3.38412249079567   -0.72190374351943   -0.59946469138835
C         1.97770132471047    2.27637558905820   -1.81286213420924
C         0.74753551660825    2.29187087765512   -2.58427547438242
C        -0.24115193456461    2.99949809861692   -1.82828485002123
C         0.36637946829732    3.43846415590306   -0.59431365208486
C         1.73743083749421    2.99529850987264   -0.59132724531772
C        -1.57072738036089    2.58197121861607   -1.83383461987472
C        -1.94991889031624    1.41525197398985   -2.59312535278166
C        -2.94236486153868    0.69364275968471   -1.83759060315270
C        -3.16708831132127    1.41461976586772   -0.60863428149208
C        -2.32562697771474    2.57652442587309   -0.61085864852550
C        -2.94236486128761   -0.69364276097022   -1.83759060261387
C        -1.94991888993893   -1.41525197538904   -2.59312535195280
C        -1.57072737977963   -2.58197121955556   -1.83383461854369
C        -2.32562697737169   -2.57652442639130   -0.61085864723656
C        -3.16708831123743   -1.41461976659352   -0.60863428054762
C        -0.99297759408552   -0.71783039647654   -3.31468847110530
C        -0.99297759425033    0.71783039493049   -3.31468847145827
C         0.38855516061751    1.14981646965502   -3.30078094275028
C         1.22012748160199   -0.00000000043330   -3.32213877497627
C         0.38855516091849   -1.14981647076899   -3.30078094220482
Cl       -1.61698912708975   -0.00000004101592    5.37081510650470
Cl       -4.10562613051875    0.00000002996432    3.82295993671289
Cl        3.84607841892550   -0.00000000039560   -4.09087775016991
