63
 energy: -142.118367232680 gnorm: 0.000123621707 xtb: 6.4.1 (a3dbbd7)
C        -1.31342942851710   -0.00050164652751    3.58351858189299
C        -0.38587789294300   -1.16408041495861    3.28861442270947
C         0.96338411035108   -0.71780323547905    3.27309347738055
C         0.96208312211430    0.72200982718194    3.27482294560072
C        -0.39254123691786    1.16843491237211    3.29507442237606
C         2.32362771891143   -2.57542880842870    0.57541777618492
C         3.17162845273993   -1.41178463737406    0.57138537961020
C         2.94060453358095   -0.69478055279856    1.81264038222727
C         1.94274524804868   -1.40691017257657    2.55145239848175
C         1.56697760247507   -2.57047169602425    1.79897707597381
C         3.17755879977337    1.42376254761357    0.59947703345323
C         2.32557189819201    2.56028473310569    0.58565707023272
C         1.56111865916310    2.57377061490807    1.81271842204623
C         1.93048751848573    1.41687812070438    2.56081213147030
C         2.92778673624007    0.69959529046963    1.79141672022531
C        -0.37222311206769    3.43862292998007    0.58497070536188
C        -1.73762469528758    2.99315448440325    0.57850439833933
C        -1.98685441099209    2.27631079448309    1.79932843378275
C        -0.74765823167540    2.27768047392477    2.57319770862802
C         0.23652321093762    2.99408171582226    1.81240882234186
C        -3.37095476498127    0.71791192407208    0.57581496042528
C        -3.36997249189873   -0.71983706001587    0.57609737306325
C        -2.78602707385055   -1.16604066666191    1.79842138668576
C        -2.64015761181609   -0.00028478082239    2.75616971035446
C        -2.78718000555389    1.16630503938124    1.79932636288408
C        -1.73749912102340   -2.99387919416309    0.57525560588817
C        -0.37004237306541   -3.43914318291045    0.57758207533064
C         0.24249320978245   -2.99039507097480    1.80325819794412
C        -0.74298711191664   -2.27585662715356    2.56609731419539
C        -1.97999107551848   -2.27369528225898    1.79681014579347
C        -0.25080796768345   -3.01352244331976   -1.83246895286894
C         0.74206809652583   -2.29118312359200   -2.58360549959018
C         1.96562218490211   -2.29109573126785   -1.81984153883680
C         1.73205127611600   -3.01213230245691   -0.60406271344916
C         0.36004433202264   -3.45585450424687   -0.60242974637506
C         2.77975463584524   -1.15946855134331   -1.80487407010030
C         2.40069267694715    0.00739830506349   -2.56341281197039
C         2.79592310358119    1.16804793251313   -1.83677067805864
C         3.64027313681953    0.76291718754530   -0.64834751573115
C         3.41402254616904   -0.73269563043138   -0.60226822888952
C         1.97247402579908    2.27201121386737   -1.82139470425637
C         0.74723367917709    2.27552226929955   -2.57838617250638
C        -0.24306979783455    2.99665623782474   -1.82499592417708
C         0.36972181740036    3.44095272052349   -0.59488596103952
C         1.73636263955346    3.01151202298567   -0.59611274999145
C        -1.56529971646206    2.57680459949795   -1.83514587912872
C        -1.94535548844871    1.41152678081322   -2.59790149818395
C        -2.93541077165401    0.69132803789607   -1.84089007306735
C        -3.16314049793956    1.41303141487017   -0.61180341427855
C        -2.32700321340808    2.57514995854649   -0.61256423051530
C        -2.93777163854164   -0.69669772348225   -1.84095112074210
C        -1.94916455159502   -1.41959058776124   -2.59938949057703
C        -1.57217426789672   -2.58653358755042   -1.83855948950086
C        -2.32916953026669   -2.57949051449170   -0.61406861451604
C        -3.16590047250465   -1.41626912145102   -0.61299574037187
C        -0.99127439447709   -0.72584819583062   -3.32705702009488
C        -0.99071406256342    0.71680391119192   -3.32852788008144
C         0.38065548076606    1.15827488174890   -3.31966493185090
C         1.22453334209516   -0.00158272501405   -3.31139815898439
C         0.37977781325034   -1.16868535119376   -3.31658822275535
Cl       -1.62103112546752   -0.00797118867093    5.36831242511214
Cl       -4.10842760488907   -0.00075715519479    3.81752586842558
Cl        5.41073481194670    1.13514216697884   -0.96004799418288
