63
 energy: -142.091498985633 gnorm: 0.000120787312 xtb: 6.4.1 (a3dbbd7)
C        -1.30235817044348   -0.00544858999072    3.53795010886912
C        -0.36968910675055   -1.17744905026512    3.31018416312947
C         0.97915010286339   -0.72057354526433    3.28553385120923
C         0.97366428634243    0.72210915009838    3.28118207073611
C        -0.37768621201947    1.17197986611847    3.31218245757136
C         2.33469218283058   -2.58446403763202    0.59596159618664
C         3.18025289266072   -1.41629736383298    0.59276797132143
C         2.94770474169109   -0.69378624146230    1.81821298932170
C         1.95728730796555   -1.41154942715680    2.56971735006198
C         1.58463779173233   -2.57969925152545    1.81891291772102
C         3.18977893319298    1.42251819575853    0.59498702575739
C         2.32211390791347    2.58635213491526    0.58324038456980
C         1.56567699087183    2.57604636207964    1.80760786594983
C         1.94230177103129    1.41757818059387    2.55873518450450
C         2.94363026604001    0.70194055283182    1.80603670016300
C        -0.36729318411301    3.44158942404725    0.59549636414848
C        -1.74158111518642    3.00187171864901    0.59396805376625
C        -1.98447867459832    2.28938436270851    1.81637948293215
C        -0.74485143717719    2.27503566462197    2.57598760813610
C         0.23947656584802    2.99574513859809    1.81344998530984
C        -3.41209123069410    0.72909087836917    0.58018952863709
C        -3.40221023612209   -0.70713491219184    0.57894844049435
C        -2.77314724483167   -1.14249178492819    1.81664678193413
C        -2.42189186487518   -0.01129258205657    2.55510010699755
C        -2.78494745088387    1.15660134884657    1.80982930597066
C        -1.74064001428574   -3.00800469511824    0.61048789123693
C        -0.35141484192811   -3.44497116811160    0.59022903225489
C         0.26062432114311   -2.99708865628941    1.81208593770048
C        -0.73031653658520   -2.27992963001963    2.56937150114184
C        -1.96736273323051   -2.30316931219546    1.80682676392278
C        -0.25638938940744   -3.22341876026430   -1.93438883833256
C         0.75189506374673   -2.29865517629056   -2.57874672814994
C         1.94889647688792   -2.28227900318847   -1.80831783026917
C         1.72126306739529   -3.00523709103721   -0.58205890743574
C         0.37164738472270   -3.47070039322328   -0.57839244323311
C         2.78211923779747   -1.16520705768363   -1.80672018447669
C         2.40553461871785    0.01087014878911   -2.54889682465479
C         2.80539548497409    1.16018978636413   -1.81520246510575
C         3.38640373358935    0.72568373538937   -0.60069528133023
C         3.39387931651542   -0.72396773269213   -0.58866794944340
C         2.10128063295528    2.46217719915553   -1.94040454001164
C         0.73959295655847    2.30073682749867   -2.58114248044906
C        -0.23796732382805    2.99410361185336   -1.81410975080056
C         0.37349540172141    3.43393698150244   -0.58341656447682
C         1.74162896402692    3.02891573857493   -0.58533503060359
C        -1.57215101232193    2.58066921745673   -1.81465534380757
C        -1.95565988372957    1.42430803425093   -2.57194798096567
C        -2.96039309775363    0.70761546446030   -1.82375461483827
C        -3.19348556347671    1.42706470341509   -0.59900831763950
C        -2.33257977267383    2.58558338580336   -0.59481108407606
C        -2.95076264869057   -0.67961882216472   -1.81779390113491
C        -1.94397222491074   -1.40840602880603   -2.55592891917216
C        -1.58781878041256   -2.57134777818397   -1.79842575042581
C        -2.30948640509202   -2.56522256502978   -0.60322703681418
C        -3.17598762624156   -1.39562023128063   -0.59396593404045
C        -0.99559704222360   -0.71596854248854   -3.29237634682837
C        -0.99140497103116    0.72091125195163   -3.28450415887421
C         0.37799306325543    1.16995555177712   -3.28218159926433
C         1.22314405643173   -0.00333932449655   -3.28833829564088
C         0.38463931957177   -1.16446808591204   -3.27945022253657
Cl       -1.94527937176142   -0.01190737275627    5.24700771292136
Cl       -0.40242022495977   -4.78659088863823   -2.87520520887410
Cl        3.11780896818897    3.66261294728288   -2.89102403497217
