63
 energy: -142.090917843298 gnorm: 0.000116661780 xtb: 6.4.1 (a3dbbd7)
C        -1.29955410210530   -0.00819753136471    3.54024514907302
C        -0.36780279510915   -1.18054570839431    3.31306166451152
C         0.98279848883275   -0.72262776997008    3.28990002729987
C         0.97784900305587    0.71879532467093    3.29171259232592
C        -0.37349181539966    1.16895057848842    3.31805451764012
C         2.33778971409883   -2.57720789299797    0.59663885357946
C         3.18271708206579   -1.40730433545102    0.59259684344954
C         2.94990099417842   -0.68879813432967    1.82007919420278
C         1.95934831121999   -1.41321465519609    2.57413468939742
C         1.58844760586333   -2.57658289713527    1.81851009001213
C         3.18171027670000    1.42394270073551    0.59836794610407
C         2.33309752871129    2.57936947186947    0.59526195457660
C         1.57443024131775    2.57648267936283    1.81980580713942
C         1.95009551945995    1.41740117629370    2.57508630528984
C         2.94727031246882    0.69961809887666    1.82328528803830
C        -0.36675362693816    3.44051180871559    0.59598403024370
C        -1.73495848340232    3.00571747959616    0.59829908461886
C        -1.97787367941095    2.28875991500760    1.82095135198756
C        -0.73769017778851    2.27169847704207    2.57893412032199
C         0.24742911241515    2.99049988553786    1.81565339694445
C        -3.40264784693917    0.73323335990327    0.57875894585468
C        -3.39732914027019   -0.70408844522596    0.57898455355734
C        -2.76870705287770   -1.14016837479956    1.81445813641577
C        -2.41670449103811   -0.01302290058641    2.55517561799085
C        -2.77792160304710    1.15875811625966    1.80956933045385
C        -1.74017142250475   -3.00889418662274    0.61357281334613
C        -0.34802584410703   -3.44494357587611    0.59230204113615
C         0.26368661122103   -2.99774328141120    1.81402013419997
C        -0.72578873230408   -2.28091154048307    2.56885831709590
C        -1.96630295569748   -2.30716863630141    1.80609649082186
C        -0.25604105825833   -3.22989069844929   -1.93202831241295
C         0.75030096639192   -2.29825614788886   -2.57449657840204
C         1.95031423994895   -2.27982821014303   -1.80828165050702
C         1.72339224616640   -2.99662418901535   -0.58220204691788
C         0.37399527925780   -3.46832781467262   -0.57521560616799
C         2.78054177463509   -1.15137864531679   -1.81421641403357
C         2.41670648685314    0.00029810823079   -2.57021151145439
C         2.78534558349533    1.17843988182745   -1.80802008393719
C         3.39830335310057    0.73104266708270   -0.58686208549029
C         3.39675443511619   -0.71083644551258   -0.58737301989530
C         1.98547739067545    2.30234276083251   -1.81378719665992
C         0.79952311502740    2.45769590084090   -2.74140640574770
C        -0.25074641999439    3.03487913221613   -1.81784486493134
C         0.35760196138567    3.43318810025445   -0.59502490780852
C         1.73288830601391    2.98965627282773   -0.59488882639014
C        -1.55765878800954    2.59050381378144   -1.81244011519946
C        -1.95601948388561    1.42766190371513   -2.58011105767285
C        -2.94440575061232    0.71278524088451   -1.82728086827587
C        -3.17795186299554    1.42993984617066   -0.59904982537738
C        -2.32023721754526    2.58811636073282   -0.59270115695561
C        -2.94971205543196   -0.68095102550296   -1.81883234807332
C        -1.94680656447500   -1.41363689782278   -2.55622775448417
C        -1.58930448162300   -2.57765573195593   -1.79661385509973
C        -2.30857044509654   -2.56607388480106   -0.60285003223206
C        -3.17265660968868   -1.39256555625927   -0.59577199114216
C        -0.99876094326598   -0.72665305361837   -3.29277779404129
C        -0.97756047817144    0.71764018482484   -3.28217167309981
C         0.37364339539747    1.14990947098691   -3.30189551833706
C         1.20782629667393    0.00489425383937   -3.26996920969603
C         0.37607921556094   -1.17618840321523   -3.27504659210921
Cl       -1.94435302709289   -0.01506774829669    5.24925909926641
Cl       -0.39175782409644   -4.79083964063336   -2.86786815187890
Cl        1.18997111120933    3.63643742791860   -4.09392002957759
