63
 energy: -142.110685189798 gnorm: 0.000119869344 xtb: 6.4.1 (a3dbbd7)
C        -1.30052812095503    0.00883822248614    3.54934250774535
C        -0.37384126050121   -1.16849285331836    3.30829927926034
C         0.97766902186295   -0.71792739867383    3.27468244764526
C         0.97727083038208    0.72332649519011    3.27263658785581
C        -0.37445451574097    1.18322865920441    3.30438481134335
C         2.32263906430454   -2.58148714857478    0.57358095225279
C         3.18917043906180   -1.41623062762190    0.58204557073661
C         2.94468024473780   -0.69577109777622    1.79544607646401
C         1.94480098132844   -1.41207408766976    2.55063313398263
C         1.56820288834493   -2.57097931897307    1.79941634584998
C         3.18425546966033    1.42036007630718    0.58128024190188
C         2.33563059494935    2.58527394318779    0.58156945483385
C         1.57325177799143    2.57316795199502    1.80453105050991
C         1.94999641344733    1.41182232668097    2.55396656658997
C         2.94824189045671    0.69660215958332    1.80529376415065
C        -0.36877564572467    3.43238572244052    0.58334234666932
C        -1.73337002601528    3.02134764543506    0.58712846586212
C        -2.09824935587966    2.46660481999288    1.95090877760003
C        -0.73450043748747    2.29059745604496    2.58638726501982
C         0.24472445394058    2.98162615727891    1.80745325803230
C        -3.38108738351147    0.70784863763130    0.58053120523758
C        -3.39823446478706   -0.72726650940762    0.57399458546752
C        -2.77622894057200   -1.15831407623735    1.79495587331739
C        -2.39533874096387    0.02950836573581    2.53816049376940
C        -2.75373931168196    1.13517891696865    1.81925962107516
C        -1.74033311908838   -3.00235903654789    0.58431152970893
C        -0.36707069936028   -3.43641354380363    0.58831273602212
C         0.24211374115085   -2.99050348131083    1.80884329904019
C        -0.73846381013664   -2.27048658041373    2.57223774124045
C        -1.98028064043393   -2.28310396104421    1.80546044549466
C        -0.23971494897897   -2.99020073710677   -1.82141041139808
C         0.74144477018441   -2.30038961796786   -2.59301396930044
C         2.10003468651434   -2.45616332357243   -1.94813238185663
C         1.74089402077703   -3.02381860255113   -0.59366554946136
C         0.37375918871302   -3.42975437188105   -0.59140163656607
C         2.80381546510676   -1.15399130707601   -1.82724468278599
C         2.40778290641333   -0.00815202112825   -2.56438523913153
C         2.79238972422786    1.17196198277932   -1.81995673434219
C         3.40529553516253    0.72834181187394   -0.60052936876509
C         3.39015700580171   -0.71940061868753   -0.60989577057161
C         1.97918194001202    2.29588724524024   -1.82394478564672
C         0.75086629279617    2.29346590239209   -2.58140341243511
C        -0.23754841502961    3.00760124128264   -1.81996168946195
C         0.36976673274493    3.45030142700731   -0.59768798132448
C         1.74421369249803    3.01401461370241   -0.59841959948566
C        -1.55940504146270    2.57150145858935   -1.80540107893349
C        -1.94060586230840    1.40741505842114   -2.56557472654014
C        -2.94034006745782    0.68773546454807   -1.81643267319041
C        -3.17308131349046    1.40177457617919   -0.59150743868963
C        -2.30745508065636    2.57676200318151   -0.58105151651504
C        -2.95156141067471   -0.70394240995682   -1.82970007642157
C        -1.95296795746290   -1.42150102766622   -2.58353570694778
C        -1.57136894575718   -2.58176306413850   -1.82666831208792
C        -2.33404974823489   -2.58593479982584   -0.60413987791226
C        -3.18708789603133   -1.42765822096858   -0.60912591110196
C        -0.98876052877600   -0.72524779332968   -3.29822433244795
C        -0.98673387238266    0.71495690092198   -3.29624819319900
C         0.38709720103842    1.15905541127666   -3.30295918580265
C         1.23029361642239    0.00110076860066   -3.31389835184322
C         0.38079786580004   -1.17338188738081   -3.29799480919020
Cl       -1.95693435039078   -0.00309890416294    5.23844581437264
Cl       -3.13930584965969    3.62738655758653    2.87853195948363
Cl        3.12821564420032   -3.65262660714757   -2.89480562156926
