63
 energy: -142.112756384675 gnorm: 0.000109159611 xtb: 6.4.1 (a3dbbd7)
C        -1.30044393856027    0.00280221092744    3.54742139697037
C        -0.37335442089376   -1.17450780198489    3.30780465352315
C         0.97711692814237   -0.72570868165409    3.27778182374401
C         0.97564026509658    0.71671529717063    3.26843349065336
C        -0.37518488820300    1.17806384861395    3.30507052358987
C         2.32773185921287   -2.58874122180826    0.58549880853614
C         3.17605561825422   -1.42178306332449    0.58522759165749
C         2.94300525724076   -0.70728010401154    1.80509246483896
C         1.94774817344052   -1.42471748390781    2.56301915468817
C         1.57304710003499   -2.58676751765896    1.81186954831749
C         3.17885367236152    1.39762521663954    0.57015743153371
C         2.33453746795506    2.57801114739462    0.57963759544598
C         1.57199551369179    2.56314845147916    1.79302062965144
C         1.94506566264165    1.40252796420660    2.54552491140336
C         2.93915543060492    0.68118687410531    1.79520447251414
C        -0.37624609774311    3.42900676037126    0.58480142183804
C        -1.74023104217660    3.01976012669722    0.58928603884892
C        -2.10215267492492    2.46302448308741    1.95363027690973
C        -0.73491012040582    2.28661942678208    2.58491866629658
C         0.23958603048630    2.97806791779434    1.80784631873663
C        -3.37966348498112    0.70180506501219    0.57869635848959
C        -3.39431764224942   -0.73472517094693    0.57163262908249
C        -2.77262859103842   -1.16502437477750    1.79049288175165
C        -2.39336549037276    0.02332064160030    2.53494928569820
C        -2.75273232834670    1.12907467876243    1.81777135552328
C        -1.74119795515352   -3.01432670045021    0.58398037639166
C        -0.36925134926594   -3.45342173136955    0.58741349444995
C         0.24465695212511   -3.00083056484014    1.81198131224824
C        -0.73592471622653   -2.27759325822240    2.56854058114563
C        -1.97743953406939   -2.29082524401124    1.80250508462806
C        -0.25094689132938   -3.02431345754874   -1.82214464782882
C         0.74423886822629   -2.30158634961773   -2.57508088476471
C         1.96240278010405   -2.29603736281515   -1.81921201048058
C         1.73247449181195   -3.01470497060227   -0.59389072955268
C         0.36118141475149   -3.46271873511514   -0.59203674885995
C         2.77136047769778   -1.15827824960434   -1.82194772267295
C         2.41873962681386   -0.01597244657642   -2.59364870789510
C         2.99209996722539    1.22913927045645   -1.95350209724478
C         3.42438320325793    0.71085890156788   -0.59931772543123
C         3.38984715329681   -0.71375940231085   -0.59687897211184
C         1.96881680725483    2.29919145450154   -1.82915307422741
C         0.75520793456405    2.27713148612568   -2.56332640252665
C        -0.24642078723184    3.00276797817193   -1.81244409382391
C         0.35916892932106    3.44046993705362   -0.59684979966941
C         1.73400064360676    2.98513786282113   -0.60978959294975
C        -1.56553577086791    2.56853273198733   -1.80248309985519
C        -1.94735242104986    1.40545389240214   -2.56665974534824
C        -2.93931815691062    0.68408982972962   -1.81886382414149
C        -3.17652486993672    1.39670775367029   -0.59199016377215
C        -2.31477671746703    2.57521668363978   -0.57936574509429
C        -2.94639526234532   -0.71071488052494   -1.83126590344300
C        -1.94738596310325   -1.42574256528258   -2.58533837763268
C        -1.57048753866648   -2.59643798673200   -1.82733015063878
C        -2.33330209646563   -2.59635357115355   -0.60588450677426
C        -3.18173267863020   -1.43349187447953   -0.61196968239972
C        -0.98756181101182   -0.72773024629549   -3.30212776491675
C        -0.98375392251636    0.71597662631523   -3.29922115685878
C         0.37879604910214    1.16059422571111   -3.31223515723774
C         1.23201336845390   -0.01083279127806   -3.29729340576784
C         0.38278362071254   -1.17190603141964   -3.29814736993580
Cl       -1.96065237506951   -0.00998722277590    5.23552312981411
Cl       -3.14288805579007    3.61634788919245    2.88630561418046
Cl        4.44315431137665    1.83162139781260   -2.90517296370101
