63
 energy: -142.087541720525 gnorm: 0.000081543452 xtb: 6.4.1 (a3dbbd7)
C        -1.28958763710491   -0.01375385170252    3.52979407996470
C        -0.36806167129168   -1.19652766130717    3.30522229919267
C         0.97658220530168   -0.73495550881567    3.26705401461184
C         0.94716709348835    0.71693121637204    3.24760952078745
C        -0.36241653013939    1.15817967567661    3.31696625784871
C         2.33724854979140   -2.58010933153122    0.58913771411837
C         3.18282918968375   -1.40795996810222    0.58757551228959
C         2.94924512936350   -0.69321101852331    1.80641646558949
C         1.95488899398573   -1.42146509464909    2.56238605638307
C         1.58958574564742   -2.58843416154712    1.81367627465992
C         3.17687755992147    1.42419357072511    0.57650644047282
C         2.32964210542659    2.58708811375230    0.57367933506702
C         1.56908251728224    2.58574317966181    1.79590519394325
C         1.95671774090106    1.42297534145144    2.55478017863353
C         2.93195247798675    0.70290690333856    1.80630363256049
C        -0.34754259503862    3.43563323692263    0.58629387130663
C        -1.71970513984967    2.98726207776325    0.58500885551797
C        -1.96707604971793    2.29061206083903    1.80471344047450
C        -0.78716912211130    2.45239756272510    2.73516541765164
C         0.26002916838157    3.02563983096971    1.80557117615762
C        -3.38374128386561    0.73271229522627    0.57186452061965
C        -3.38114611067275   -0.70326811834126    0.57098611791430
C        -2.75817705511167   -1.14369424086771    1.81013252305127
C        -2.40337278144403   -0.02087635242845    2.54821578756551
C        -2.74879188990061    1.15884992912451    1.79460823301170
C        -1.73963117527059   -3.01540305468466    0.60696279569756
C        -0.34730195529935   -3.45330211970042    0.58533198895056
C         0.26438183320738   -3.01299187275851    1.80972319241569
C        -0.72631083293341   -2.30083697673257    2.56733403687514
C        -1.96619852158330   -2.32055626819067    1.80031039364328
C        -0.25220128314471   -3.22211617462722   -1.93914279573702
C         0.75402610444058   -2.29038382378888   -2.58113980686812
C         1.95122401595393   -2.27419578571307   -1.81473010875379
C         1.72417027169175   -2.99756420451282   -0.58701653201875
C         0.37521186326811   -3.46805342853110   -0.58239616685818
C         2.78706244102977   -1.15551251298666   -1.81697636985551
C         2.41496744535024    0.00430218018045   -2.57679987680233
C         2.79725363295278    1.17322886221074   -1.82946538761185
C         3.40769450768924    0.72948672819246   -0.60083880351742
C         3.40579061758617   -0.71463968200732   -0.59851511003777
C         1.97958404648332    2.29661092181549   -1.83318212567078
C         0.74870440952277    2.29251216336481   -2.58817835907957
C        -0.23981446245619    3.01848312115158   -1.83229855833340
C         0.37455461794943    3.45436601818484   -0.60675366379065
C         1.74361435606924    3.01688636479468   -0.61145001959366
C        -1.56264567062272    2.58862855397629   -1.83197384847017
C        -1.94766231519773    1.42784927630694   -2.58979687112036
C        -2.94860956237668    0.71122846498932   -1.83527356019083
C        -3.17539253033537    1.42971071395882   -0.61030996386821
C        -2.31827122758388    2.58447987415129   -0.60581367563077
C        -2.94318052169723   -0.67711708752426   -1.82774012943004
C        -1.94247789882561   -1.40681674629215   -2.56495310038201
C        -1.58395244978731   -2.57025778452992   -1.80259076184410
C        -2.30566700090173   -2.56631960309268   -0.61143785344327
C        -3.16729039345789   -1.39357347093038   -0.60140911690724
C        -0.99563701849738   -0.71717555542642   -3.30763660528918
C        -0.99089841808769    0.71941348334781   -3.30916971507029
C         0.38213606858960    1.16380229235232   -3.30733953012225
C         1.22497138450340   -0.00229930516895   -3.29605345040707
C         0.38384438976912   -1.16887998634693   -3.29151152260200
Cl       -1.94156902557044   -0.01784839341390    5.23959341267122
Cl       -0.38859714802559   -4.78075172111542   -2.88100190269079
Cl       -1.19916697238567    3.65339567953241    4.06764251108188
