63
 energy: -142.112742542281 gnorm: 0.000107354886 xtb: 6.4.1 (a3dbbd7)
C        -1.30034259162526    0.00581994428215    3.54784866378804
C        -0.37242606827542   -1.17047268117225    3.30964403703087
C         0.97704567166019   -0.71829696906453    3.27395848720985
C         0.97584124669479    0.72404900814522    3.27248430904407
C        -0.37621749473207    1.18200561624018    3.30424660557237
C         2.33288906559803   -2.58944709762695    0.58374954542901
C         3.17770889532579   -1.40739845882176    0.57224992928806
C         2.93766269789138   -0.69089134339558    1.79570996794502
C         1.94562216173701   -1.41135836192754    2.55061107757348
C         1.57507022527035   -2.57674977760789    1.79939653683270
C         3.17709107331101    1.41164553460959    0.58311326059035
C         2.32915772175708    2.57684563998412    0.58145270614580
C         1.57019536402440    2.57312423173054    1.80606492515712
C         1.94744805558869    1.41589469755734    2.55856826636939
C         2.94429703481067    0.69750231190405    1.80452454494393
C        -0.37296361891199    3.43358012596830    0.58495414566358
C        -1.73588126261820    3.02144225405404    0.58731140282451
C        -2.10161344310337    2.46563517360885    1.95129513883182
C        -0.73689325485719    2.29002752479220    2.58641924215308
C         0.24057905072166    2.98251082914324    1.80977768587843
C        -3.37884407704853    0.70604740733244    0.57949981719732
C        -3.39356873819978   -0.73049491531011    0.57176276195777
C        -2.77131148833990   -1.16167209995158    1.79311423178690
C        -2.39290630084525    0.02550302493494    2.53532795713367
C        -2.75283805687382    1.13213132510807    1.81586448362359
C        -1.74555933158590   -3.01311561932466    0.58622584409663
C        -0.37249312753385   -3.44916892090821    0.58757535396840
C         0.24390476376344   -2.99598035443177    1.81053324465824
C        -0.73363547774287   -2.27411792065255    2.56761525436074
C        -1.97792042376243   -2.28835025928103    1.80486643757930
C        -0.25592757901810   -3.01187918868669   -1.81521257833111
C         0.75028513750036   -2.28446561507123   -2.56069510985929
C         1.95995264467213   -2.30587677625732   -1.82417816231307
C         1.72805663033771   -2.99429285712394   -0.60481725774674
C         0.35400784773164   -3.45187126012425   -0.59176992426485
C         2.98774381530169   -1.24031744931125   -1.95121855801210
C         2.41919943740036    0.00520802790781   -2.59433177290855
C         2.77509209166875    1.14831926756846   -1.82449336024928
C         3.39197596924793    0.70279162918090   -0.59853276021011
C         3.42221848081650   -0.72168992118073   -0.59812925682866
C         1.97078553268660    2.28869472287477   -1.82406596851861
C         0.74882703819784    2.29375977048231   -2.57798462201474
C        -0.24169293673405    3.01417713052963   -1.81889509841226
C         0.36629035999223    3.45091455219663   -0.59671894430475
C         1.73791959486408    3.00524304516103   -0.59843732586117
C        -1.56045950585735    2.57338362076367   -1.80501931777127
C        -1.94093260481965    1.40844976681505   -2.56625887105469
C        -2.94073546714630    0.68854874472465   -1.81817164591099
C        -3.17318885582913    1.39990944603924   -0.59379246594286
C        -2.30927620358079    2.57702694007849   -0.58161441244040
C        -2.94424087990181   -0.70635306163678   -1.83144139508255
C        -1.95374428140137   -1.42254199678313   -2.58599156586599
C        -1.57545156676189   -2.59158397822724   -1.82485933246884
C        -2.33887525773407   -2.59490882518165   -0.60326558393103
C        -3.18401378282108   -1.43031050321847   -0.60957651923910
C        -0.98508151245173   -0.72642080426307   -3.30553811062660
C        -0.98648480127644    0.71724729771457   -3.29661985772538
C         0.38381527196563    1.16275487665783   -3.29604403204320
C         1.23208690432092    0.00100776861262   -3.29730822681961
C         0.37769101854236   -1.16963589394055   -3.31505561968954
Cl       -1.96073123246862   -0.00447753154973    5.23670982576913
Cl       -3.14377999628263    3.62259367584112    2.87859707905605
Cl        4.43449797400479   -1.85546774027308   -2.90156236540788
