63
 energy: -142.116938050779 gnorm: 0.000095999440 xtb: 6.4.1 (a3dbbd7)
C        -1.29067221069724    0.00142795853307    3.54045275926689
C        -0.36100192030041   -1.17525675075018    3.30879378208092
C         0.98856963331397   -0.72242709976565    3.27692190293354
C         0.98562895060787    0.71931051708884    3.26966791493089
C        -0.36703177484212    1.17732774775794    3.29917793944785
C         2.34776317952129   -2.58654325529670    0.58520030182473
C         3.19447854848628   -1.41956020323626    0.58261031914159
C         2.95690184705377   -0.69799187799464    1.80534400817736
C         1.96158699520070   -1.41781271301789    2.56064212025462
C         1.59043743602921   -2.58170995832934    1.81193475865825
C         3.19359328025833    1.41056981767528    0.57986631656022
C         2.34346138990442    2.57599922084134    0.57942027879985
C         1.58146600005454    2.56701902862363    1.80259547923661
C         1.95727474364829    1.40877150309844    2.55356332309171
C         2.95678187891200    0.68969188760915    1.80328173872607
C        -0.35758227260240    3.43342781404480    0.58356840374016
C        -1.72209244061188    3.02058116471356    0.58456124206153
C        -2.09127792754597    2.46303791802208    1.94586814283229
C        -0.72723221687192    2.28396650670862    2.58105188759616
C         0.25282819953582    2.97818180724583    1.80660230792294
C        -3.37524866798580    0.71159348195844    0.58494499122450
C        -3.37156681585324   -0.73658825829497    0.56649620732801
C        -2.75121830618741   -1.16404313829940    1.78840150956903
C        -2.38060030818913    0.01606297785507    2.52728351563201
C        -2.74656612836679    1.13141733647301    1.79960637786029
C        -1.72352009275204   -3.00815756812389    0.59044199609533
C        -0.35048378793655   -3.44689939600126    0.58826788433313
C         0.26430445714635   -3.00014109470338    1.81332645935225
C        -0.72013173133423   -2.28145375796916    2.57329652026975
C        -1.95998950690748   -2.29862389901317    1.80745808034511
C        -0.23174910444074   -3.01016085788612   -1.81958265542655
C         0.75665910039614   -2.29566392002471   -2.57337240399050
C         1.98562178261824   -2.29551055105630   -1.82026153784978
C         1.75291832026638   -3.01397998413564   -0.59406498743690
C         0.37901179662322   -3.45318178472992   -0.59201024569458
C         2.80062133951824   -1.17073182108593   -1.82312669040163
C         2.41745139664836   -0.00427632983392   -2.57920275607270
C         2.80305133885403    1.16251943224558   -1.82642144745700
C         3.41828289998124    0.71674909720170   -0.60245519578309
C         3.41718631351436   -0.72502861619786   -0.60093217736396
C         1.98789167870982    2.28883203360292   -1.82656870027633
C         0.76092464024693    2.29192553090143   -2.58092353346305
C        -0.22622370642485    3.01396240095851   -1.81968092874766
C         0.38206634012932    3.45081611973388   -0.59752693844182
C         1.75501876967090    3.00697975747349   -0.59957180224798
C        -1.54460413305289    2.57752613032804   -1.80413632233469
C        -1.93307772522056    1.40408985659807   -2.55358605209556
C        -2.93366186555947    0.70844891656959   -1.81510926458198
C        -3.15209566674587    1.39561080966435   -0.60828881050384
C        -2.29298954498781    2.57987462306626   -0.58403996152809
C        -3.13735612070600   -0.76121524794412   -1.95287116238042
C        -1.94023649537217   -1.43093965111647   -2.59347164719358
C        -1.55440917660959   -2.56585182786267   -1.82098806993224
C        -2.31694860646857   -2.57178246774734   -0.59883342557341
C        -3.17905114293531   -1.44002017798536   -0.60149052244503
C        -0.98628741318831   -0.73025660973979   -3.29551604260991
C        -0.98265582144973    0.72233302861640   -3.30720811817438
C         0.38318490085150    1.16171891707873   -3.30181527314926
C         1.23050298042435   -0.00451753996708   -3.30014904243848
C         0.38488829121689   -1.16879227780470   -3.29625618102234
Cl       -1.96169539860975   -0.00407158956515    5.22711021789651
Cl       -3.12883004794103    3.62301333584615    2.87277846072258
Cl       -4.66130843063809   -1.10917003972567   -2.90251859159107
