63
 energy: -142.113632018425 gnorm: 0.000110253611 xtb: 6.4.1 (a3dbbd7)
C        -1.29281440729103    0.00638779225960    3.55614822515768
C        -0.36441325377569   -1.16986858583605    3.31516662200742
C         0.98588476851294   -0.71859501024009    3.28323837677528
C         0.98442520673571    0.72162499681040    3.27674504733545
C        -0.36793218581572    1.18132708219987    3.30831526477226
C         2.33722813818341   -2.58112522942275    0.58434805358657
C         3.18993378412196   -1.41717257188506    0.58313781054331
C         2.95178281745424   -0.69574331247378    1.80469642971123
C         1.95533731219542   -1.41486700466368    2.56117970844879
C         1.58236436970142   -2.57700696823796    1.81248064177699
C         3.19173463024142    1.41292344118167    0.57999573742331
C         2.34153433711550    2.57706311945954    0.57997057914795
C         1.57933654475278    2.56741694881536    1.80434179188641
C         1.95545742511882    1.41029569036129    2.55523133724678
C         2.95329855293912    0.69162804072015    1.80547320398430
C        -0.36298137248762    3.42824575896868    0.58484292115412
C        -1.72617323587289    3.01451787022343    0.58717679889588
C        -2.09267121426497    2.46420355315881    1.95365565973137
C        -0.72799705396370    2.28672755700257    2.58792431642950
C         0.25040453182394    2.97708028465649    1.80744994660380
C        -3.37157530598181    0.70267254286364    0.58743394030691
C        -3.38371833237559   -0.72555769851475    0.57637184777556
C        -2.76259310164599   -1.15833098704505    1.79709301949350
C        -2.38642969946377    0.02597072526484    2.54395578556634
C        -2.74782391050022    1.13238698588445    1.82515353879083
C        -1.72612182967782   -3.00432584244741    0.58771042882485
C        -0.35985069922465   -3.44319068325838    0.59313019879078
C         0.25571889085905   -2.99471714405403    1.81681323012023
C        -0.72580840811806   -2.27172581528541    2.57532324305429
C        -1.96487121443191   -2.28271432840027    1.80535341347243
C        -0.24977262901689   -3.00389590500602   -1.81597072468207
C         0.75576359343133   -2.29328446442902   -2.58202153828344
C         1.97070332576584   -2.28572990795976   -1.82283728429407
C         1.73845877968887   -3.00224572715959   -0.59377449867367
C         0.36616040137439   -3.44175479484101   -0.58979370797536
C         2.80217015435075   -1.16565412151576   -1.82361074268074
C         2.42463534892144    0.00204816541920   -2.58055927324683
C         2.80817467963038    1.16801066415717   -1.82657783172200
C         3.42011779198110    0.71976691556445   -0.60094227503652
C         3.41442684597114   -0.72312052572363   -0.60154059935288
C         1.99206137837206    2.29298360693298   -1.82589507100118
C         0.76330287531934    2.29159133095039   -2.58080981736511
C        -0.22870514432104    3.00815711815266   -1.81810607819853
C         0.37638924707752    3.44434122768984   -0.59878625866065
C         1.75225221171253    3.00742388886857   -0.59873666941193
C        -1.55137046901288    2.56201644456417   -1.80828330332648
C        -1.93635386630044    1.41265829176753   -2.57237201795731
C        -2.92672240092936    0.67543134878861   -1.81092704907523
C        -3.15809119303185    1.39167307892328   -0.58896900712694
C        -2.29877649370650    2.56740835463949   -0.58009655431805
C        -2.95379233386205   -0.70623636302301   -1.83108590191731
C        -2.08329512775389   -1.52516157851083   -2.75854392044134
C        -1.56831662837085   -2.60336185204969   -1.82821390742971
C        -2.30588949135550   -2.57723807457641   -0.61060058379978
C        -3.15733317142676   -1.41499334322823   -0.61543010878986
C        -0.97147301371996   -0.71490939171529   -3.32015165763373
C        -0.97493035555730    0.70362773943894   -3.29156140013137
C         0.39814695041231    1.16613478717520   -3.30170064904024
C         1.24057119180382    0.00531369026703   -3.30307855214603
C         0.37653702140300   -1.15585855098142   -3.29620177950341
Cl       -1.94520943708595   -0.00528629111669    5.24646713950951
Cl       -3.12875214404163    3.62957722993771    2.87681041032849
Cl       -3.08394025274852   -2.26113508272263   -4.11038806914961
