63
 energy: -142.112002458969 gnorm: 0.000130685992 xtb: 6.4.1 (a3dbbd7)
C        -1.29595008825365    0.00554095254920    3.53733138529981
C        -0.36879481749902   -1.16847323223588    3.29061455380835
C         0.98249820078603   -0.72436491804262    3.26147517270013
C         0.97698719511288    0.72541862728950    3.27162113452346
C        -0.36923695076986    1.18019927823625    3.29659464247138
C         2.32729344939428   -2.56292648235358    0.57023750874588
C         3.19447602577518   -1.43087378333739    0.56995101617966
C         3.14898501494341   -0.75825828005367    1.92482095965441
C         1.95205605821486   -1.42481251332442    2.56432523019337
C         1.56801960862970   -2.55290549609026    1.79784301012563
C         3.16457506649622    1.40015057820658    0.58246002320448
C         2.32183338241592    2.57722361689316    0.57187954291415
C         1.56575811727334    2.57183155482153    1.79055168220536
C         1.94748040965481    1.40042819231889    2.53027691559069
C         2.94802413952502    0.70554898815964    1.79803540010697
C        -0.37476193484743    3.43468120556064    0.57627299659968
C        -1.73774212634174    3.02156847643454    0.58033441794015
C        -2.10077091568989    2.46491631074443    1.94496324453207
C        -0.73712269097261    2.29391710193522    2.58099644687523
C         0.23847765517874    2.98344811279261    1.79983079464281
C        -3.38048975481597    0.70532067570786    0.57223280792158
C        -3.39662080818821   -0.73077675801359    0.56457285977605
C        -2.77464948082633   -1.16162422097630    1.78369396525439
C        -2.39168071751719    0.02644871520462    2.52735860536477
C        -2.75269506524386    1.13168261524039    1.81026731693154
C        -1.74491010701970   -3.01055199527393    0.57417012828067
C        -0.37088676115062   -3.44319594158143    0.57626733388464
C         0.24120157867225   -2.98669734491438    1.79839413428785
C        -0.73745626368325   -2.27188293577940    2.55522351047835
C        -1.98178686918570   -2.28846614077329    1.79398248465773
C        -0.25401117392928   -3.01650520595773   -1.83335208879546
C         0.74062064516531   -2.29732363170466   -2.59112650824845
C         1.96404405119662   -2.29691525075106   -1.83104868378449
C         1.73122143050024   -3.00712121268187   -0.60704723206419
C         0.35941534825975   -3.45149782214635   -0.60312930000295
C         2.78067612595142   -1.17164244519312   -1.82440965963769
C         2.40561969939283   -0.00685389448850   -2.58083053300107
C         2.79285128189652    1.15915034234193   -1.82499823169168
C         3.41332185413649    0.71896103197448   -0.61221478510599
C         3.39759930216387   -0.73224467151342   -0.60051073574131
C         1.97505836588349    2.28988888993916   -1.83462577014541
C         0.74984315165900    2.28605176023957   -2.58667339065789
C        -0.24211470477547    3.00726364966281   -1.82696211155562
C         0.36461872023856    3.44989319080173   -0.60624634298275
C         1.73647560221648    3.00721860614780   -0.60782488038563
C        -1.56089085194180    2.56954781320226   -1.81238396786643
C        -1.94409176202156    1.40667960010039   -2.57514748540253
C        -2.93913947681542    0.68579273165038   -1.82537640955289
C        -3.17346128715216    1.39975852382519   -0.59900971891514
C        -2.31082858899941    2.57567090222099   -0.58776079310165
C        -2.94790094558075   -0.70657502317762   -1.83920308357785
C        -1.95275601450336   -1.42362929653325   -2.59621370377366
C        -1.57508230085906   -2.59204050500460   -1.83822006352022
C        -2.33842078880456   -2.59275216629285   -0.61480179135693
C        -3.18504746055898   -1.43093319073003   -0.61911874362562
C        -0.99357979304019   -0.72635490136757   -3.31717111850226
C        -0.99061457782054    0.71635706368559   -3.31030274972636
C         0.37987027544944    1.16082956952913   -3.31452734417468
C         1.22463812114376   -0.00558620481220   -3.31247595359711
C         0.37728817389567   -1.17128532279670   -3.31669969418745
Cl       -1.95269911796099   -0.01491898716259    5.22620003720075
Cl       -3.14714183075889    3.61952378434326    2.87279637421262
Cl        4.68033313408803   -1.12332980841239    2.87444437110543
