63
 energy: -142.087977833673 gnorm: 0.000238378227 xtb: 6.4.1 (a3dbbd7)
C        -1.30263699713432   -0.00455379004106    3.52965138132334
C        -0.37738939370191   -1.17871611583575    3.32380827020566
C         1.05696387147904   -0.76411599532082    3.53100986880445
C         0.97230944347258    0.72130100387610    3.28464051938925
C        -0.36461000249643    1.15239381309430    3.28114994734903
C         2.33941791438290   -2.57273846458818    0.57489427706207
C         3.17915063671178   -1.40805533852508    0.57412941784864
C         2.93029778643844   -0.69405260969564    1.80962027887473
C         1.97814482344291   -1.41718668452197    2.56510357245370
C         1.59157112297165   -2.55591145271076    1.80239083775250
C         3.17801549430026    1.41969446707103    0.58648022594468
C         2.32700497819365    2.58385058679371    0.58130415759846
C         1.56214724022475    2.57081980528877    1.80194711860188
C         1.93358433644848    1.41053545517825    2.55502071171788
C         2.94705402839941    0.70518294193093    1.80988381034149
C        -0.37018275204852    3.45630741858327    0.57843949233918
C        -1.74208812627239    3.01244087746901    0.57818449990125
C        -1.97537660918331    2.28953079762243    1.80195028029450
C        -0.74062238215641    2.27170099741299    2.55233689572712
C         0.23922004641779    2.99499959548831    1.79837870102578
C        -3.41164922791906    0.73641826050731    0.56768325923221
C        -3.40587522747028   -0.69997300731924    0.56614384850119
C        -2.77759770055762   -1.13234409684799    1.80194463005961
C        -2.42271760405448   -0.00417486441604    2.54654648525004
C        -2.78393710805162    1.16090865211466    1.79903586382935
C        -1.73093786498923   -2.98831477344958    0.59885568301660
C        -0.34056217853964   -3.42720398708497    0.57943605730568
C         0.26973180951414   -2.98620478647295    1.79455960758030
C        -0.71821457001027   -2.23846942733508    2.55251116290263
C        -1.95814813908232   -2.27883533795322    1.78841065266782
C        -0.25328957852777   -3.21833201814754   -1.94932017347292
C         0.75397876844369   -2.28832519005424   -2.59379919200698
C         1.95470726780216   -2.27369234886261   -1.82744149956080
C         1.72580359937523   -2.99590005269541   -0.60082718388052
C         0.37867873589480   -3.46479392386872   -0.59591648402175
C         2.78787322709577   -1.15425916865939   -1.82813228982900
C         2.41413002850239    0.00744494230457   -2.57988569175803
C         2.79439062962422    1.17445080900308   -1.82307269695754
C         3.40886704300828    0.73085721701258   -0.60182380535625
C         3.40298085935927   -0.71259736896929   -0.60271199625726
C         1.97141785710990    2.29625995133865   -1.82321251615325
C         0.74394821505073    2.29322143392869   -2.57877285490109
C        -0.24772760232857    3.02130372102993   -1.82735919278672
C         0.36134430790272    3.46000096440157   -0.60042291944451
C         1.73622224365746    3.01347983304390   -0.59833682486428
C        -1.57185426047901    2.59293254409815   -1.82971515654944
C        -1.95279036143208    1.43030859939309   -2.58718869077216
C        -2.95340352166832    0.71398070518102   -1.83513726957943
C        -3.18976577798034    1.43311953299382   -0.61094059408654
C        -2.33354208300156    2.59620614065562   -0.60765748542912
C        -2.94885583093112   -0.67442741099266   -1.82997682812364
C        -1.94363807484527   -1.40359964113730   -2.56977796874838
C        -1.58350378968798   -2.56284799206507   -1.81067508895643
C        -2.30752895926968   -2.55564731745383   -0.61402031697172
C        -3.17696635625869   -1.39037446907828   -0.60710161500363
C        -0.99790963930153   -0.71201699638615   -3.31118028842062
C        -0.99303735519128    0.72376904945454   -3.30756370266937
C         0.37831464940853    1.16775648431935   -3.30440718100221
C         1.22372004768367    0.00299416125518   -3.29747734402944
C         0.38355886550445   -1.16460206978343   -3.29672727301603
Cl       -1.94966592238342    0.03851789279488    5.24213753769025
Cl       -0.40524029131626   -4.77236185744668   -2.89798231475666
Cl        1.59539735554513   -1.10194144393445    5.26166939428260
