63
 energy: -142.095977715567 gnorm: 0.000165607992 xtb: 6.4.1 (a3dbbd7)
C        -1.30816515423402    0.00620295822542    3.57250187586902
C        -0.37745291324706   -1.27499119975250    3.58266780488621
C         1.00203006953723   -0.72652090651223    3.28822894541499
C         0.98773003062763    0.69467205951046    3.26365279427215
C        -0.35841413273231    1.14754142160785    3.29390085387290
C         2.33902586470465   -2.58695045514251    0.56845688444265
C         3.17769209115488   -1.41753674695652    0.56768208596572
C         2.93256684384124   -0.69304900460150    1.79110002551933
C         1.94359611700577   -1.40589124328004    2.54959508455080
C         1.58640076664055   -2.59552665967606    1.79244852385262
C         3.19332480661733    1.41972173645660    0.57159540917016
C         2.34671741538940    2.58556239278754    0.57666220361191
C         1.58568993202732    2.57043136454131    1.79981998396995
C         1.95853953163661    1.40450911951736    2.54498895974766
C         2.95117114201206    0.69524701907688    1.79407497622966
C        -0.36342467657672    3.43752448808838    0.58312185099578
C        -1.73452467308216    3.00918737603652    0.59354363785673
C        -1.96806132519048    2.28190445055212    1.80722239863459
C        -0.71990714778479    2.24977585942435    2.55581008963436
C         0.25815247734735    2.97817842117868    1.80132438008933
C        -3.62271639753589    0.76394750586357    0.63046504268173
C        -3.39223521102037   -0.72635963667439    0.57906764450799
C        -2.73829732557643   -1.13353741551068    1.78897837899608
C        -2.37588092081389    0.00181974171229    2.52576629328486
C        -2.77248634653981    1.15902377713012    1.82059612536379
C        -1.69826144751437   -3.00862700399300    0.57256515489983
C        -0.34101557484968   -3.46223509564125    0.56628618398560
C         0.26503658380042   -3.00384737868580    1.79469672826545
C        -0.72841990902271   -2.29046000461930    2.55125823802922
C        -1.90364985100406   -2.27625484723666    1.80564253649920
C        -0.23165253553333   -3.01041059366434   -1.83800751120839
C         0.75525012333236   -2.28850619221564   -2.59915974487000
C         1.98401860402397   -2.28889697970504   -1.84204915688727
C         1.75373932836405   -3.01972294805551   -0.62008954388579
C         0.38649118264985   -3.46434551680095   -0.61923883247501
C         2.79654424788670   -1.16525421258462   -1.83908880405783
C         2.41447901281425    0.00406447796629   -2.59307363177859
C         2.79314174717036    1.16752319064052   -1.83192303625916
C         3.40994659772999    0.72191161661376   -0.60953077704107
C         3.40642625310778   -0.72005543595428   -0.61051749401639
C         1.97513486566240    2.29189995931457   -1.82894487933783
C         0.75274373427985    2.29314325815022   -2.58950144820031
C        -0.24131626863685    3.00798004997834   -1.82811024159005
C         0.37287216970337    3.45151740326966   -0.59602657708332
C         1.74190334322832    3.01003172591412   -0.60094168707834
C        -1.55499621457469    2.57671524061968   -1.83094808436143
C        -1.93248406531706    1.41930392643279   -2.59126408488696
C        -2.92145659460517    0.70339696742260   -1.81723090157202
C        -3.16982759335252    1.43121523299826   -0.61790371673183
C        -2.32402156068488    2.55486459376721   -0.59848962008512
C        -2.93169098694445   -0.68946064052805   -1.83518146424283
C        -1.93983520432548   -1.40400451978731   -2.58146518169711
C        -1.55206804941014   -2.57042416744602   -1.82408437881978
C        -2.29344933260375   -2.57044697430082   -0.59705875931230
C        -3.15075770246687   -1.40010384982881   -0.58899952194357
C        -0.98162165621023   -0.71568762784659   -3.32436277270104
C        -0.98096842025725    0.72478571154970   -3.32461928618744
C         0.38940096141601    1.17087866633081   -3.32409560875644
C         1.23525911016634    0.00539969650993   -3.32405935148905
C         0.38544303410232   -1.16180972642810   -3.32313141418818
Cl       -2.14093870124596    0.28317759835811    5.15645873349870
Cl       -0.34958647539624   -2.09709946608175    5.20214463860886
Cl       -5.38498326715958    1.13323282192819    0.97028500276063
