63
 energy: -142.094203131489 gnorm: 0.000239333507 xtb: 6.4.1 (a3dbbd7)
C        -1.32055367731861    0.00865427227371    3.60347976138782
C        -0.38586220997369   -1.27589580905635    3.60016706061785
C         0.98985287533434   -0.72433238706181    3.29384844297174
C         0.97262991338977    0.69580254403257    3.26439478577619
C        -0.37324965812400    1.14898716166531    3.29868786769367
C         2.33031749228060   -2.58332189642792    0.57061428715968
C         3.17057330275795   -1.41382132502644    0.57294819922599
C         2.92122468341317   -0.69097082958185    1.79423105457457
C         1.93161443314590   -1.40311423621820    2.55343973286199
C         1.57576010785031   -2.59340764128154    1.79790648173157
C         3.18779552883169    1.42216532866640    0.57657715144867
C         2.33865278199121    2.58914691372519    0.57959344866054
C         1.57637155605369    2.57243375267486    1.80270815048080
C         1.94562137770354    1.40565033012135    2.54510841814813
C         2.94038212702993    0.69786606697799    1.79786218207674
C        -0.36508354749216    3.44524473546388    0.58550644995429
C        -1.73636943692190    3.00554212588666    0.58505756767808
C        -1.97508488202492    2.28653113593940    1.81051351627197
C        -0.73119283569290    2.25639373031006    2.56289678981795
C         0.24899657146138    2.98148277977206    1.80372274145543
C        -3.39164764726008    0.72685325297121    0.58623337134930
C        -3.37142218850152   -0.69954147275286    0.58580416351807
C        -2.74278174911992   -1.12448692551489    1.82721340465675
C        -2.39781854667370   -0.01177284676457    2.57099961351222
C        -2.77280315325155    1.16152097878209    1.81368240162319
C        -1.69807721216033   -2.99921990491892    0.57986097903769
C        -0.34709222772439   -3.45728581345420    0.57542013611046
C         0.25989927963861   -3.00632913355623    1.80291181783592
C        -0.73925956205835   -2.29115046972933    2.56512448783344
C        -1.90595026166595   -2.27452917475772    1.82423866001440
C        -0.24220082866641   -3.00303123262869   -1.82939641538952
C         0.75830906868247   -2.28644137767192   -2.59870567336199
C         1.97604898290422   -2.28141438289684   -1.84088087360801
C         1.74493041631888   -3.01110982620472   -0.61510908384211
C         0.37711715018626   -3.45401976116210   -0.61349611303672
C         2.79827785865948   -1.15879489083770   -1.83353885673360
C         2.41941564624481    0.01446066874746   -2.58651098624969
C         2.79908914234101    1.17690081828418   -1.82770742300458
C         3.40963427126383    0.72801640060099   -0.60365376831012
C         3.40332188899763   -0.71694634867210   -0.60626345721294
C         1.97978469460038    2.30287286380982   -1.82479666299012
C         0.75505477831871    2.30179784860024   -2.58059921260876
C        -0.24288309983271    3.02068322270605   -1.82273642363549
C         0.36669573320634    3.45630211796857   -0.59547718482500
C         1.74351979824590    3.01776417023923   -0.59773575199387
C        -1.56402946359754    2.58372825557025   -1.82830634519464
C        -1.94531589703674    1.42915953021512   -2.58909989224570
C        -2.93307006841838    0.69503556705828   -1.81983995016330
C        -3.16865713552723    1.41894557187595   -0.60090213970799
C        -2.32641811956341    2.58416119567631   -0.60064721173929
C        -2.94364002523567   -0.68619915404928   -1.82030346564264
C        -2.08029614407768   -1.51008752885309   -2.75011684492150
C        -1.55969258493423   -2.58816084477571   -1.82521886035751
C        -2.27773695263562   -2.55829992886987   -0.60009168052562
C        -3.13312821115147   -1.38274374685787   -0.59705449489442
C        -0.97232001865670   -0.70240250034776   -3.32113120216595
C        -0.97930079220946    0.71616456503896   -3.29903362372506
C         0.39331795004240    1.17834891940875   -3.30683299968081
C         1.23738363341898    0.01834655352083   -3.30983108111389
C         0.37534722553959   -1.14553225036930   -3.30384522388373
Cl       -2.09013486614696    0.30087183983368    5.21958900484120
Cl       -0.34059386051892   -2.10346134679807    5.21341221212539
Cl       -3.09130540558371   -2.24226117776353   -4.09676913856931
