63
 energy: -142.094298766031 gnorm: 0.000099848285 xtb: 6.4.1 (a3dbbd7)
C        -1.32287655214879    0.00652816341737    3.59393373577077
C        -0.38988741460803   -1.27790229182545    3.59209735160110
C         0.98748071118900   -0.72814528405444    3.29264488370850
C         0.97243797590037    0.69326299328624    3.26558378097828
C        -0.37462417966698    1.14805073646525    3.29668227054642
C         2.32699702005291   -2.58939703912789    0.57235854097697
C         3.16418089317480   -1.41574199951798    0.57252142287834
C         2.92129884802189   -0.69524243666870    1.79754032133005
C         1.92900064525306   -1.40649370218968    2.55319018498713
C         1.57277982489742   -2.59687766022921    1.79650879621436
C         3.18615849589768    1.42086087362327    0.58373727674997
C         2.33917474521619    2.58812127241433    0.59059321752239
C         1.57874848728708    2.57464965831490    1.81351869888685
C         1.94682359379642    1.40306279303987    2.55361720488964
C         2.93959648644509    0.69414719438426    1.80083787681486
C        -0.36307414209423    3.44423645918935    0.59328643364923
C        -1.73810084512075    3.00667466342000    0.59341405652601
C        -1.97319316851696    2.28828379050317    1.80589152308570
C        -0.73086119473984    2.25775516026537    2.56666513367330
C         0.25191339778767    2.98512047743732    1.81475527795262
C        -3.39162903021354    0.72240584987197    0.57880275184023
C        -3.38092310053707   -0.71359899636254    0.58337506197042
C        -2.75238600698892   -1.13483311242875    1.82262865089063
C        -2.39780936603910   -0.01084305173621    2.55842466507735
C        -2.77125958902718    1.15450990925292    1.80789953248740
C        -1.70982565760789   -3.01229892708641    0.57946054775232
C        -0.34984736090762   -3.46785510102225    0.57350098854781
C         0.25409828211929   -3.00906596492870    1.79781263975871
C        -0.74365699337769   -2.29431930374447    2.55844810444315
C        -1.91667162836332   -2.28213695507929    1.82388386466912
C        -0.23763702325303   -3.02029310317991   -1.83041202929905
C         0.75218783763647   -2.29020764720104   -2.58617590596714
C         1.97454949652048   -2.29564611807595   -1.83546457786099
C         1.74666317039832   -3.02710374722510   -0.61290006818677
C         0.37781457595706   -3.47453404989861   -0.61252080794875
C         2.77758819221772   -1.16248976010682   -1.83023870703963
C         2.39293682448895    0.00232819345404   -2.58461579709904
C         2.79171606290706    1.17381379761299   -1.82440977816578
C         3.39574455408028    0.72629416693788   -0.60540920944096
C         3.39015444987857   -0.71829055037640   -0.60445306072097
C         1.95215431839741    2.28756455091145   -1.81538333695237
C         0.74432209091453    2.30941109206598   -2.56910662122366
C        -0.23721317679786    2.99477708686430   -1.81830331187923
C         0.36817375132939    3.45059639210608   -0.58092924529992
C         1.73682996783610    3.01151751313700   -0.58510825047645
C        -1.57605723346722    2.59158578647295   -1.82178657343627
C        -1.94187287398531    1.40797431609839   -2.58233583192446
C        -2.93381951034516    0.69258599225029   -1.82294215809407
C        -3.17053303974116    1.41575003025392   -0.60287589777003
C        -2.32400236866970    2.58506485164761   -0.60624788365331
C        -2.93467003905863   -0.69949218255213   -1.81630366708515
C        -1.94214972217720   -1.41410801052804   -2.56916956357684
C        -1.55697321473962   -2.58333747353208   -1.81964691276187
C        -2.30356347509454   -2.58413804327743   -0.58975141492243
C        -3.16190976260373   -1.41009223141506   -0.58892932708958
C        -0.98625768151971   -0.70437901812307   -3.29087854897096
C        -1.00353914718960    0.72171186308897   -3.31910760941008
C         0.39940005059250    1.24165008053003   -3.54272340871673
C         1.23252018532643   -0.00160207480016   -3.32448066056955
C         0.38643665304865   -1.14991116278073   -3.29667941260544
Cl       -2.10477686691766    0.29439134271766    5.20380791359088
Cl       -0.35555072782809   -2.11059414091538    5.20396281835837
Cl        0.59080842952433    1.85453936358780   -5.26358019293444
