63
 energy: -142.093485565826 gnorm: 0.000086360885 xtb: 6.4.1 (a3dbbd7)
C        -1.32277561934290    0.00548812226841    3.60037286457217
C        -0.38796175151458   -1.27833766777858    3.59458464918437
C         0.98832868372396   -0.72718878704997    3.29168393272357
C         0.97099233085108    0.69242869605364    3.26320315581327
C        -0.37612421257117    1.14719474440433    3.29887464613645
C         2.33613096955280   -2.59177006660637    0.57501343955839
C         3.17446234677138   -1.41964514181758    0.57685881050282
C         2.92295897018910   -0.69626018107620    1.79823794437534
C         1.93261579164750   -1.40702031624059    2.55495116464654
C         1.57805508757301   -2.59820734825625    1.79823744834575
C         3.18572509471612    1.41525723067394    0.57875161260187
C         2.33357306427588    2.58089823526720    0.57970950838679
C         1.57417443804440    2.56888559188508    1.80409209429195
C         1.94333679325355    1.40255079349381    2.54701138260962
C         2.93946714403489    0.69339727029436    1.79885276647005
C        -0.36916334339779    3.44510047014707    0.59105954608957
C        -1.74164198255502    3.00981034707391    0.59463381960667
C        -1.98026957562537    2.29002436712799    1.81795822664908
C        -0.73365078039623    2.25632716218529    2.56800916890388
C         0.24580771475108    2.97996426890691    1.80562556353949
C        -3.39520376516526    0.72960073134200    0.58795014772644
C        -3.38036720978474   -0.70434173068214    0.58811387503796
C        -2.74871031667417   -1.12725176456236    1.82434225415608
C        -2.40036445269248   -0.01298940456275    2.56893137835881
C        -2.77517508853842    1.16179371166798    1.81554130392128
C        -1.70172383467177   -3.00204579961890    0.57544621637919
C        -0.34231804583978   -3.46237129945478    0.57080335518174
C         0.26034635553760   -3.00765278528363    1.79615234587588
C        -0.74137794457407   -2.29100547626550    2.55707887365781
C        -1.90977287924291   -2.27787810960858    1.82248051229467
C        -0.22659986729840   -3.01671079077775   -1.83166329864061
C         0.75516477775407   -2.28972073918871   -2.58623130206990
C         1.98500402334411   -2.29174339421053   -1.83358324856194
C         1.75577125878423   -3.02538173740076   -0.61189064022967
C         0.38757904633539   -3.47315213716767   -0.61325242779771
C         2.79615550115264   -1.16732271199277   -1.82897676953680
C         2.41270703324082    0.00459129102002   -2.57828095383379
C         2.79394598883706    1.16182985360753   -1.82350683759790
C         3.41123616746970    0.71940703661645   -0.60097297748332
C         3.40851976017587   -0.72422318433006   -0.60069101913057
C         1.96541321813421    2.28133815062842   -1.82070800259254
C         0.74491910198150    2.27830819905887   -2.57953197323278
C        -0.25044558293462    3.01881625365628   -1.82099830780939
C         0.35877722587372    3.44741345251633   -0.59659168674631
C         1.73339634772623    3.00178974196474   -0.59767858884877
C        -1.56756387139803    2.56947403811309   -1.81992695147867
C        -1.95995993964851    1.43077455559212   -2.57601803741620
C        -2.91862324131475    0.70978202948612   -1.82087248876915
C        -3.17455872791825    1.42850248371007   -0.59189113114406
C        -2.33416419070956    2.58843122274727   -0.58945908661014
C        -2.93452496926798   -0.68930049056172   -1.81723224313785
C        -1.92464065741107   -1.40514114767718   -2.57693027781806
C        -1.54476690158401   -2.56991197044464   -1.82091844868455
C        -2.29010663331861   -2.56755127959445   -0.59307355071236
C        -3.14869112270474   -1.39208246772982   -0.59442813001569
C        -0.98723588556999   -0.72693863736814   -3.32223588545705
C        -1.04858374223479    0.76835765839374   -3.54407655817257
C         0.39150261993043    1.17380130043152   -3.32235438807970
C         1.21949812444218    0.01439172949606   -3.29697108373948
C         0.37308972164099   -1.15492665272777   -3.29755891416950
Cl       -2.09676469415504    0.29061869248432    5.21656915325217
Cl       -0.34832755359333   -2.11491838691333    5.20302401633094
Cl       -1.56452157183626    1.14200307999594   -5.26809817822958
