63
 energy: -142.093396692269 gnorm: 0.000186171908 xtb: 6.4.1 (a3dbbd7)
C        -1.32228957812726    0.00730183963142    3.59716185382676
C        -0.38769442144768   -1.27711565965927    3.59385256023108
C         0.98825408955806   -0.72578683539853    3.29078368255539
C         0.97128496243904    0.69483088074020    3.26238330280420
C        -0.37513620253540    1.14792433270997    3.29562296179919
C         2.33086510309753   -2.58293250542438    0.57038052123550
C         3.17158579066022   -1.41175833661621    0.57407900702420
C         2.92228415941909   -0.69126193412393    1.79587990422234
C         1.92986753821392   -1.40511764624150    2.55179133066639
C         1.57701406182912   -2.59510725383922    1.79668100010806
C         3.18929525309540    1.42303308111422    0.58190956410096
C         2.33995233374415    2.59028893609265    0.58492764924305
C         1.57673119786068    2.57324035200000    1.80596917643826
C         1.94590624692548    1.40584759361374    2.54946228425346
C         2.94126937787290    0.69795088787470    1.80112197781093
C        -0.36280743766968    3.44557002295733    0.58663087489682
C        -1.73583316721874    3.00594520350481    0.58482111373523
C        -1.97632657951963    2.28825902966739    1.80929786456035
C        -0.73364422251785    2.25535404227633    2.56124953970257
C         0.24904723620308    2.98257518603730    1.80537374516578
C        -3.39813199401430    0.72997392606968    0.58543494677438
C        -3.38108909989161   -0.70522313086435    0.59045678481950
C        -2.75334651949603   -1.13101901392054    1.83480149508119
C        -2.40057247803837   -0.01393739579942    2.56576914802151
C        -2.77443694767010    1.16039767796839    1.80502703412200
C        -1.70645041603443   -3.00668557615832    0.58450930882722
C        -0.34612313102921   -3.46441382839823    0.57459564572992
C         0.25830430762105   -3.00750620976373    1.79425579248199
C        -0.74217924343030   -2.29307489609624    2.55988436931978
C        -1.91540500399929   -2.28259819935185    1.83182370361926
C        -0.23414128634872   -3.01965124656037   -1.83468409499846
C         0.75318621164076   -2.27150597988868   -2.59307499269965
C         1.97817517210287   -2.27599238637308   -1.83513167532527
C         1.74686707332348   -3.00953764338780   -0.61612944412653
C         0.37800144925663   -3.46042841563606   -0.62034269637591
C         2.79856783141435   -1.15642767484310   -1.83067374732675
C         2.41337431629626    0.00825643471991   -2.57769493602831
C         2.79244794398847    1.17285993378623   -1.82123357339303
C         3.41074305128681    0.72853186879033   -0.59947835430580
C         3.40989912390863   -0.71509346802115   -0.60181875678667
C         1.97391340596116    2.29777483756618   -1.81832586974706
C         0.74731547608914    2.29792796152059   -2.57177776874971
C        -0.24053373823838    3.02022150039056   -1.81988034101881
C         0.37049317737607    3.46197440179065   -0.59102408889608
C         1.74436159738084    3.01864625979522   -0.59355912047007
C        -1.55820194405177    2.58406454884491   -1.82257299345139
C        -1.93266793314016    1.41967356516928   -2.58353620809214
C        -2.94641391937208    0.70783545797040   -1.82505102277413
C        -3.17449910603269    1.42178544970648   -0.60772579579891
C        -2.32433221111712    2.58552702606928   -0.60167170804914
C        -2.90968391688921   -0.68964097050403   -1.81183097151900
C        -1.95030416804071   -1.41597856783240   -2.56480212216770
C        -1.55250115181553   -2.55482177270358   -1.81665128360979
C        -2.29654590109040   -2.56987397320590   -0.58033261373909
C        -3.14987643101325   -1.39714360397337   -0.57730220040871
C        -1.04720149358873   -0.75631972648747   -3.54159003051033
C        -0.99013472734436    0.73927780898259   -3.32099381130693
C         0.37039975743553    1.16597213355292   -3.29149702949776
C         1.21859461674624    0.00029452359149   -3.29450946335844
C         0.39395202548295   -1.16287806392260   -3.32590911218656
Cl       -2.09966449296886    0.29452409983075    5.20995487507181
Cl       -0.34959508633239   -2.11058399518516    5.20375928439727
Cl       -1.57864576761710   -1.13858484919749   -5.25774962799672
