63
 energy: -142.104879019422 gnorm: 0.000131085255 xtb: 6.4.1 (a3dbbd7)
C        -1.31626261008643    0.00886769805344    3.58167898928232
C        -0.38232891572829   -1.27010883812174    3.58027239821398
C         0.99310022148216   -0.71344085397903    3.28290305399178
C         0.97649613460062    0.70934183540502    3.26311964437385
C        -0.37194343626774    1.15559063937515    3.29294994744498
C         2.32632330041445   -2.57516084874730    0.59553600310237
C         3.15655281370839   -1.40239645209406    0.57689942894395
C         2.92814275739185   -0.67290362724188    1.80027857027868
C         1.93806586073880   -1.38742513766471    2.54998806051360
C         1.58621951610541   -2.57339087297284    1.77434033703008
C         3.18848936322264    1.43484280575133    0.58178195089843
C         2.33754416429000    2.59771335154239    0.58102521485855
C         1.57655031214852    2.58756053310536    1.80582190057273
C         1.95014082248827    1.42253581656809    2.55266365456439
C         2.94741436773598    0.71505266294924    1.80419187525231
C        -0.36802780380463    3.44978261801051    0.58466684133072
C        -1.73943096522081    3.00779360278439    0.58728971204213
C        -1.97369438443175    2.29163953607858    1.80736528404159
C        -0.73189640435909    2.26522894416368    2.56133897347286
C         0.24938124132989    2.99328819443972    1.80578272535118
C        -3.39109117741199    0.72164871864389    0.57304207510775
C        -3.38731868228268   -0.71007453851917    0.56959620018824
C        -2.74905260577679   -1.13934264586270    1.80219985735011
C        -2.39358407409235   -0.00876260420935    2.55167218821723
C        -2.76276238383241    1.15046312431556    1.80429757475627
C        -1.72166660324196   -2.99498328178479    0.56142752418580
C        -0.35912470069705   -3.44041215807610    0.55444418030986
C         0.24136531339706   -2.99350138567976    1.80593326764094
C        -0.72245296803950   -2.28753789700732    2.53801159580610
C        -1.92797141293493   -2.27556889012469    1.79400752312953
C        -0.24296002235930   -2.99532224103232   -1.82106550785850
C         0.74755276179402   -2.26860028612871   -2.57386477480706
C         1.97493103500087   -2.28447484212642   -1.84506477708096
C         1.85339885395260   -3.22173674350924   -0.66127736983810
C         0.35931074906817   -3.46444922457415   -0.61677321446685
C         2.76894966859032   -1.16318068912004   -1.82881009489122
C         2.39368607369197    0.00512676697677   -2.57722015332529
C         2.77680632170326    1.16881338373769   -1.82010045776420
C         3.39868252588136    0.72605174514816   -0.59864194188596
C         3.40209998007198   -0.71059439894629   -0.59619074255182
C         1.96458183222095    2.29598296303206   -1.82149085352172
C         0.73736174751574    2.29931498916866   -2.58047740191117
C        -0.25192608383017    3.01896306928647   -1.82371942256597
C         0.36179401262735    3.45858973137576   -0.59433577037652
C         1.73617006751949    3.01907131728510   -0.59757351774962
C        -1.57591566256324    2.59190579029581   -1.82463562715546
C        -1.95543163231406    1.42967921259463   -2.58842995658641
C        -2.94999350880193    0.70685026424794   -1.83252567443256
C        -3.18069494711890    1.42469046749398   -0.60579964093962
C        -2.33448971483421    2.59080340567146   -0.60262701635777
C        -2.94865182210277   -0.68270602444798   -1.83466329698933
C        -1.95277593572229   -1.40225190016231   -2.59067714292811
C        -1.57211596551418   -2.56828431538741   -1.83114114745784
C        -2.32550881851828   -2.57327802859583   -0.61526489501127
C        -3.17755367868198   -1.40365954274395   -0.60982696241990
C        -0.99841361354304   -0.70680874583318   -3.31653790027835
C        -1.00021399103606    0.73565018883738   -3.31694142775437
C         0.37174218589939    1.17968049561514   -3.31609346714091
C         1.21490175708674    0.01277193316443   -3.31503196905248
C         0.37412282484319   -1.14869139456201   -3.31416308357465
Cl       -2.10546451607404    0.29355008959090    5.19443097925445
Cl       -0.33748094275787   -2.10167389652472    5.18798218414565
Cl        2.75293886757183   -4.77906660727456   -0.97080927598429
