63
 energy: -142.100549844224 gnorm: 0.000057859481 xtb: 6.4.1 (a3dbbd7)
C        -1.33004093527866   -0.00109786092584    3.58326068500864
C        -0.39810594765511   -1.28186304939349    3.57996555721885
C         0.97402625534055   -0.72068124551033    3.26802125263030
C         0.94803534587051    0.67796393083042    3.24351987604882
C        -0.37471231100312    1.13289702061502    3.27280981920804
C         2.32479613935962   -2.57868091337289    0.56111102841794
C         3.16414454730586   -1.40824829777090    0.55844425620902
C         2.91928250508576   -0.68422194602128    1.77629744030326
C         1.93284401108705   -1.41758375594336    2.54544445378480
C         1.57380234424001   -2.58717271929444    1.79325878868025
C         3.16099708907100    1.40138796554162    0.57088755927143
C         2.31062264520943    2.57006117334518    0.57390736711812
C         1.57437184162679    2.58702493690588    1.79041863637594
C         2.07400482033788    1.49864811929310    2.70857519883513
C         2.95361979324987    0.69151983505929    1.78552092326927
C        -0.36179619494105    3.43746404409176    0.57096427280925
C        -1.73367841041963    2.99889510388227    0.57552165030709
C        -1.96977262414741    2.28277378081756    1.80583838112912
C        -0.74460530997546    2.26204507448989    2.55495097907211
C         0.25477314050492    2.97762249559790    1.78575911482988
C        -3.39466401385551    0.72253628745188    0.57494617757031
C        -3.38663423055154   -0.71315089067764    0.57419289909726
C        -2.76167579697598   -1.14084865937363    1.81521856085765
C        -2.40810162233044   -0.01971925152810    2.55318235769510
C        -2.77446415967835    1.14907880090251    1.80142148120663
C        -1.71573941670034   -3.00946545853453    0.56826059291458
C        -0.35215896008873   -3.45878815288226    0.56414331735262
C         0.24751549470438   -3.00403758845740    1.79069279916745
C        -0.75002960555722   -2.29842357795241    2.54730685007232
C        -1.92736688195365   -2.28743176154238    1.81225518563021
C        -0.24000058070133   -3.01506166356622   -1.83978288278003
C         0.74852667430817   -2.28769957005587   -2.60004670216065
C         1.97743543348685   -2.28841079089399   -1.84837477664211
C         1.74538017549171   -3.01374524573748   -0.62201361307228
C         0.37484216178841   -3.46392039270951   -0.62184169295264
C         2.79390205849296   -1.16662009881822   -1.85228787639987
C         2.40859660591909    0.00352606958513   -2.60462721335535
C         2.78366724354204    1.16600841190074   -1.84268303848086
C         3.39646939814979    0.71684007499046   -0.62058162554616
C         3.40144457301981   -0.71900554786311   -0.62442460878615
C         1.96463937370729    2.29160042683881   -1.83977399530258
C         0.74127788317270    2.29492808603049   -2.59870677859468
C        -0.25172096068797    3.01899059953967   -1.84147318662397
C         0.36411276454987    3.45521051205143   -0.61363910146110
C         1.72879267048892    3.00873410913044   -0.61465987735629
C        -1.57027902578816    2.58722653245951   -1.83577820695405
C        -1.94952657759153    1.42024566730099   -2.59046682590440
C        -2.94386382053828    0.70086630471882   -1.83018315330501
C        -3.17879831011025    1.41985921937556   -0.60922392994665
C        -2.32880761113623    2.58542626770626   -0.60754676070952
C        -2.93667074511248   -0.69070893572130   -1.82633395589983
C        -1.94446820336312   -1.41168233524890   -2.58409857867131
C        -1.56185596851017   -2.58012132255310   -1.83121468999329
C        -2.30731468307573   -2.58024795928573   -0.60316348299109
C        -3.16311687292225   -1.40412009490270   -0.60012529188079
C        -0.99342546873840   -0.71776632187988   -3.31885766064059
C        -0.99508083119903    0.72386543060714   -3.31987936293765
C         0.37534058989559    1.16959002348852   -3.32494253331547
C         1.22347539307163    0.00399505406822   -3.32795409974029
C         0.37776896508641   -1.16284707350827   -3.32475344697932
Cl       -2.08896375048155    0.30364814379061    5.20043206810381
Cl       -0.33762599709274   -2.10318045262431    5.19424324474988
Cl        3.02825499779912    2.18940073538536    4.10120238459489
