63
 energy: -142.080579701091 gnorm: 0.000137003830 xtb: 6.4.1 (a3dbbd7)
C        -1.32162334780218    0.00326482148347    3.57473624541705
C        -0.39139510391863   -1.27514657257825    3.57139791629956
C         0.98573033372432   -0.72792683349463    3.28864607806049
C         1.04937168929939    0.75103644905290    3.49885232732300
C        -0.37795332912899    1.14618666464546    3.29348918389873
C         2.31591896353118   -2.57611042476081    0.56100120877603
C         3.15868649460568   -1.40451285439904    0.56630768991933
C         2.92332420080638   -0.68692761895150    1.78067862797380
C         1.89958191454862   -1.38538457436965    2.53446731124065
C         1.55389485719086   -2.58202152035255    1.77747665019146
C         3.18203216802992    1.42176431835399    0.55658967200478
C         2.33644838147876    2.58385262572059    0.55959110128113
C         1.57957699990466    2.55900611348009    1.79016643652401
C         1.96639194969940    1.42076706083682    2.54341216760801
C         2.92856243434566    0.70508812258116    1.78537791929689
C        -0.35989930099685    3.43109958569763    0.57879991095977
C        -1.73396428164243    2.98966217471355    0.57538019804527
C        -1.97103861817069    2.26231326883129    1.78999601112146
C        -0.72422449065251    2.22052315269781    2.54377592389813
C         0.25345867040646    2.98228962739312    1.79015779627999
C        -3.40626122985594    0.72226834294821    0.56766509452491
C        -3.38970379103404   -0.71184087462396    0.57012856553306
C        -2.76088842929729   -1.13697279151301    1.81402718036703
C        -2.40587576306176   -0.02302881727204    2.54958932209557
C        -2.78102567441750    1.14873945954474    1.79205459187547
C        -1.71544661280618   -3.01278675828756    0.56418352157565
C        -0.35599553191825   -3.46972819473132    0.55683444990568
C         0.24515528880198   -3.01016187833804    1.78131003162273
C        -0.75249612203323   -2.29525408614737    2.54368864254884
C        -1.92345391492923   -2.28790023236124    1.81105947421102
C        -0.23876002481155   -3.01499411097379   -1.84606922006185
C         0.75001256729113   -2.28711999987004   -2.60452337710065
C         1.97691500304272   -2.28850376522652   -1.85004242399148
C         1.74177379471517   -3.01702495348920   -0.62521605430470
C         0.37531760979835   -3.46823325890298   -0.62767361305955
C         2.78983591338328   -1.16290358124401   -1.84445581413698
C         2.40966787933913    0.00696798460150   -2.60266463529455
C         2.79040594428479    1.17107367409915   -1.84675165633650
C         3.40418136742289    0.72515264421401   -0.62273939269474
C         3.40185879295989   -0.71655988312822   -0.62138723492864
C         1.97152290771499    2.29647013132215   -1.84384600056536
C         0.74488714641474    2.29488242327305   -2.59675474130655
C        -0.24941752392825    3.01395439639556   -1.83366827370028
C         0.36657687324605    3.45484404507941   -0.61061208639000
C         1.73906982496053    3.01352274930554   -0.61682807620077
C        -1.57053109929560    2.58676592083086   -1.83744995741278
C        -1.94852986817501    1.42149615508673   -2.59494351730153
C        -2.94342750970030    0.70204463298342   -1.83646399184733
C        -3.18276465918412    1.42165816103800   -0.61503981260427
C        -2.33304955818538    2.58301851599842   -0.61074934992189
C        -2.93455657998150   -0.68938445685055   -1.82978559475288
C        -1.94302328707823   -1.41062398026548   -2.58737810860427
C        -1.55995343080762   -2.57851097662038   -1.83466837982222
C        -2.30490330145567   -2.57892831624787   -0.60557129428803
C        -3.16111062691289   -1.40222671613757   -0.60253004869239
C        -0.98987964428003   -0.71518171645015   -3.32083732682902
C        -0.99271689863655    0.72537631091279   -3.32219917390477
C         0.37909159647766    1.17154589878061   -3.32504742310239
C         1.22649053175776    0.00696341759926   -3.32805552429016
C         0.37992855653313   -1.16105543750814   -3.32707319453232
Cl       -2.10487268704081    0.28763267519305    5.19284925274932
Cl       -0.35784266752656   -2.11341735835129    5.18655366756374
Cl        1.57532319764734    1.12922639996638    5.24341941888908
