63
 energy: -142.100608027824 gnorm: 0.000034997157 xtb: 6.4.1 (a3dbbd7)
C        -1.31022165633215    0.00319385942938    3.58054252203026
C        -0.40013362932440   -1.29625836502121    3.62740461530893
C         1.09756996364153   -0.77399422283907    3.57168643455779
C         0.97242159858257    0.68799453996433    3.24290356823023
C        -0.35614760569587    1.11683680830443    3.24778818703917
C         2.34517772645653   -2.56313085603798    0.55076051858305
C         3.19017640138061   -1.40695724632512    0.54867521686320
C         2.93737276286649   -0.69494334694817    1.78177645959403
C         1.96659920852895   -1.42401729618995    2.54484857895571
C         1.58983700159497   -2.53825190016176    1.79527147721153
C         3.18784162233021    1.41398999009419    0.55887399000063
C         2.33066021400521    2.57455223743196    0.56298822857741
C         1.56547406375834    2.54886245975536    1.78339770038187
C         1.93154443991430    1.38872455974899    2.52592062160588
C         2.95921146834505    0.69066785241938    1.77929135724785
C        -0.37291048141500    3.44720979145386    0.57292724612678
C        -1.74685207374578    3.00681939224537    0.57701302805534
C        -1.97613032479569    2.28370040581610    1.79742376190037
C        -0.72933831991167    2.24760531464960    2.53569793992460
C         0.24096178075363    2.97638358180544    1.78826494883413
C        -3.39806837684973    0.71962651487370    0.57288737093793
C        -3.38848026640319   -0.71238540774818    0.57183714026593
C        -2.75287944046185   -1.13648542105730    1.81124173247177
C        -2.40208822158748   -0.01386881382998    2.56087358134545
C        -2.76849221999870    1.14681593414111    1.80274746561303
C        -1.71493707451278   -2.99775114520472    0.57060886703890
C        -0.34864408637616   -3.43877911736934    0.56557868725686
C         0.25218048408538   -2.97175256089286    1.79433787318785
C        -0.71246549103415   -2.25126274069749    2.52342019944892
C        -1.92113349957477   -2.27022300958737    1.80232654720025
C        -0.23960797315680   -3.00641486710660   -1.83761202686266
C         0.74734620723703   -2.28131793708585   -2.59846638554520
C         1.98056622214280   -2.27875899099865   -1.84897230272918
C         1.75193271593360   -2.99381297791345   -0.62042291921831
C         0.37374889274195   -3.44586361739737   -0.61672836154004
C         2.79789681312973   -1.15581065687059   -1.85402266184768
C         2.40994619208356    0.01264690077692   -2.60770640104555
C         2.78975717809673    1.17614059645278   -1.84865915308419
C         3.41570034950673    0.72963733219453   -0.63055657151658
C         3.41767343545752   -0.71162373624029   -0.63215002050548
C         1.96662907401392    2.29743391005742   -1.84083362116035
C         0.73640732114111    2.29569630676037   -2.59178667520463
C        -0.25560662918803    3.01473645897795   -1.83266526678834
C         0.35777351763773    3.45275750117256   -0.60548770688195
C         1.73327258717083    3.00876557026051   -0.61054398656486
C        -1.57899241814058    2.58630374257053   -1.83260147245979
C        -1.95615160475349    1.42195445118767   -2.59166157164177
C        -2.94900739021457    0.69919741095350   -1.83291229199978
C        -3.18397530073172    1.41927945184174   -0.60788864240974
C        -2.33972467571893    2.58739673748816   -0.60940105288103
C        -2.94242788547406   -0.68969816593373   -1.83087769045314
C        -1.94843994081308   -1.41116024793727   -2.58854700644334
C        -1.56661896362027   -2.57807383247586   -1.83272223279162
C        -2.31299361694632   -2.57860633911777   -0.60683556439041
C        -3.16681273212382   -1.40611600693955   -0.60233371846902
C        -0.99608911576831   -0.71515398047886   -3.31775398351048
C        -0.99878171233290    0.72662442613260   -3.31759123724340
C         0.37129334535689    1.17286627234873   -3.32173181394410
C         1.22191515041967    0.00981958210277   -3.32575193018933
C         0.37679991352147   -1.15829950254864   -3.32280257505198
Cl       -2.04671795934649    0.37172230018644    5.20439588421733
Cl       -0.70763972755564   -2.26577309013360    5.11014370202782
Cl        1.92137875712160   -0.90901146934660    5.18987746415782
