108
 energy: -324.503277715645 gnorm: 0.057090585744 xtb: 6.4.1 (a3dbbd7)
C        -1.34379970160047    0.02677873842599    3.64352314967085
C        -0.41870969530853   -1.25957537914339    3.67831234083591
C         0.97529161191249   -0.71916558277743    3.39132109683617
C         1.05291447468535    0.76972455684382    3.55518187405854
C        -0.38781679726898    1.16678010504818    3.32156192700245
C         2.51346501021212   -2.78700584265241    0.63856520908337
C         3.16000506149025   -1.41313102280088    0.61496554820386
C         2.92031182871862   -0.70403888798959    1.79890965188306
C         2.07947592909445   -1.51671521534632    2.77414461435789
C         1.60158642619521   -2.60357442693488    1.84149779626491
C         3.38391915049952    1.51863961150811    0.63097147096000
C         2.31969119327985    2.59219732925036    0.56232767323097
C         1.55907390946722    2.54955570860882    1.78052276828252
C         1.92964120452091    1.40206829798609    2.50915138282170
C         2.88419686307135    0.68264765188883    1.80334716112809
C        -0.37170022470814    3.45405607402613    0.61663518061217
C        -1.75165392386855    2.98774348031972    0.61081633196835
C        -1.97008417724825    2.27397169815194    1.82356907442088
C        -0.73512905884213    2.24188596152452    2.57117457859266
C         0.23703201432811    3.01086183539145    1.79946866399788
C        -3.34633703294504    0.66642627520347    0.58112357639920
C        -3.36913016996993   -0.75164258253806    0.56833711190299
C        -3.04996200692347   -1.25701319828636    1.97500627405199
C        -2.38723134181023   -0.02863692680535    2.56911332490294
C        -2.71712364044898    1.08129084166444    1.80950187619233
C        -1.72320172323950   -2.98081407431679    0.57173196443249
C        -0.40560094448562   -3.31371928714666    0.55685723938497
C         0.23942697268740   -2.81185241692798    1.76962452305029
C        -0.74196491670224   -2.20582721167384    2.55174134796525
C        -2.12230037234309   -2.50869688646095    1.96851171879932
C        -0.26507118395511   -2.98711285461212   -1.86207777880000
C         0.71904324726643   -2.26991868310732   -2.61468126068371
C         1.95163231301427   -2.28953989893830   -1.83253397433523
C         1.69721644335651   -2.99485772143218   -0.62172696617348
C         0.37532652853527   -3.40353531282459   -0.62427261472055
C         2.74558487468593   -1.15483579594499   -1.82389221182224
C         2.37360821013551    0.00722594467232   -2.55461660894833
C         2.72641086413221    1.12596908683908   -1.79855545203389
C         3.34133872791851    0.69704966633501   -0.60810916891495
C         3.34709798304690   -0.70832176789104   -0.57768435921647
C         2.10467595927564    2.47227836674954   -1.96277670351157
C         0.72384625050948    2.27371097542672   -2.56355433688339
C        -0.22806077805460    2.97750044557859   -1.78562475760091
C         0.35777578899289    3.41263200756377   -0.59110039323254
C         1.74071096587623    3.01086270776132   -0.58792130701918
C        -1.69668402204814    2.75341078953916   -1.92858061694065
C        -1.96650878823688    1.40996313775685   -2.58165453636046
C        -2.91913586287110    0.69590109170572   -1.81357362777805
C        -3.14336950079411    1.40000431061295   -0.58515178026055
C        -2.35394454442426    2.58220954904477   -0.56686269698577
C        -2.92508847641720   -0.70288899053103   -1.80766020970000
C        -1.94899875929149   -1.41605486285077   -2.57290654761749
C        -1.57731457730630   -2.58686648545838   -1.86236244847244
C        -2.51500213637610   -2.78197953620285   -0.67607708606003
C        -3.17822076347615   -1.42095466810661   -0.60309655200106
C        -0.98847511241285   -0.70705225306114   -3.30397723257683
C        -0.99308247173983    0.72931240415599   -3.28142249207986
C         0.36985114939529    1.19075625548644   -3.31896342990374
C         1.29024324233783    0.01152995909211   -3.58295812726720
C         0.35305561791744   -1.16172706544145   -3.33789706683971
C        -2.06943644693764    0.36367346052734    4.99178792457632
F        -1.25697416070314    0.52427714929558    6.01552062916131
F        -2.93857038042845   -0.57914014693388    5.31962913636481
F        -2.75261699304312    1.50565589511422    4.82707580354690
C        -0.48072566706955   -2.04148341072693    5.03102251713496
F         0.07556221879536   -1.35433200404931    6.01038608169178
F        -1.72405309671632   -2.35380123689664    5.39325913942776
F         0.15389977230435   -3.21325048525211    4.88677679532076
C         1.59788707975105    1.31808908417762    4.93303458170525
F         1.03313894291008    0.76779202566891    5.99001103488854
F         2.91861367938071    1.14819541872636    5.02757398504675
F         1.38827330010639    2.63985497032147    4.97690806402917
C         3.51164349315489   -3.97327050228332    0.69746314573870
F         4.41095494205393   -3.87799256392102    1.66498038503341
F         4.19606390641903   -4.05644399802226   -0.45010971357251
F         2.84051593706370   -5.10991274002977    0.86911212873437
C         3.02355872213065   -2.08765180526198    3.92110048167776
F         4.14690297032162   -2.63045412258547    3.45999362212499
F         3.39768727683873   -1.11169763209234    4.73737386546586
F         2.42375033293162   -3.01533299667569    4.64609669427489
C         2.94083705358181    3.48957104475742   -2.75417667684036
F         2.28390418660233    4.65077645854007   -2.84327605302167
F         3.19882993663275    3.07643698639171   -3.98954386829141
F         4.10533945854620    3.73210950160613   -2.16111465713220
C         4.77640436091808    2.10556765662498    0.93907816851747
F         4.74947242399671    2.82037870568853    2.06356401634907
F         5.19432193488481    2.91012965642975   -0.03314850726741
F         5.68239817402163    1.14096456814519    1.08211436987060
C        -2.37119306614970    3.88527455211706   -2.72848664741189
F        -3.67897360969343    3.66011298925616   -2.85105699519685
F        -1.85886955641736    3.97527120607845   -3.95429195075492
F        -2.21393832836274    5.06066334154839   -2.12611144696455
C        -3.52773658883436   -3.89387005977881   -1.00728948574330
F        -4.09263195605317   -3.65557431379702   -2.19888343563835
F        -2.91372979118276   -5.07350967338052   -1.07370283672228
F        -4.51491210823025   -3.96656319549074   -0.13050880648468
C        -4.45802801719960   -1.43854759782544    2.64395134770252
F        -5.12450582890227   -0.27024313157858    2.56497566774022
F        -5.15678663742034   -2.32463512572688    1.96158024646376
F        -4.43047487764222   -1.79036040224136    3.89904932792572
C         1.81902125502693   -0.03058975033168   -5.02451778452272
F         0.80769869123582   -0.04356601410155   -5.89577979788848
F         2.58115478969105    1.01843740271387   -5.30677044281564
F         2.54681251612505   -1.12978349182523   -5.22607640516220
C        -2.70268236615951   -3.79440554952678    2.68218930026329
F        -1.78985583736040   -4.77191261110588    2.59693778290905
F        -3.81324634615973   -4.23885342526740    2.12136501993579
F        -3.01077696592244   -3.62094433371373    3.94604720244866
