62
 energy: -137.563166835479 gnorm: 0.000131691598 xtb: 6.4.1 (a3dbbd7)
C        -1.29392206795819    0.00530926725828    3.53467460599309
C        -0.36809074380497   -1.17090288665018    3.30528960742264
C         0.98590635239518   -0.72184085532482    3.28334242312613
C         0.99259274527510    0.71983144896149    3.28670274821827
C        -0.36007561073842    1.17621882449363    3.30755548664613
C         2.33694218654045   -2.58496307546510    0.58355751761608
C         3.18521856054143   -1.42095160299278    0.58320140552155
C         2.95062173068524   -0.69817643514732    1.80978604419439
C         1.95431478363099   -1.41725340870544    2.56270582452601
C         1.57834598941558   -2.57863351847136    1.80907371063499
C         3.19249362261764    1.41207158601019    0.58661912157462
C         2.35060324643726    2.58118994996673    0.59259664554775
C         1.59721303289627    2.57848054433491    1.81797433024855
C         1.96532181540629    1.41161544494928    2.56846119998019
C         2.95728710005863    0.68824642104750    1.81246820739545
C        -0.35322786595260    3.42911618592942    0.59434347832535
C        -1.72964393572430    2.99243348116513    0.61536297670442
C        -1.95232978944954    2.29679113133732    1.78907021999503
C        -0.71517844827059    2.27627429683046    2.56893017029269
C         0.27176164963417    2.99566159682702    1.81702634185912
C        -3.38764984629857    0.70459927853169    0.56533841539396
C        -3.39074233021175   -0.72959651853566    0.56565433101050
C        -2.77132238744120   -1.15902278405046    1.79258326388341
C        -2.41338525023444    0.01760427253190    2.54962192179285
C        -2.77216718095426    1.13572589666459    1.82010715791072
C        -1.73370986632541   -3.00690213710760    0.58131353621370
C        -0.36194861125227   -3.44404033814061    0.58339164471370
C         0.25264622488569   -2.99299835726259    1.80873017781453
C        -0.73050487483061   -2.27121424292033    2.56588145870147
C        -1.97292753390932   -2.28561447143228    1.80104888768952
C        -0.24266308167443   -3.01763813025041   -1.82451888005386
C         0.75185353857163   -2.29696494322986   -2.58102362034842
C         1.97593011933780   -2.29558041490822   -1.82147830956136
C         1.74285225095747   -3.01279943150476   -0.59651372262415
C         0.36932242786673   -3.45564327127510   -0.59541648089599
C         2.79352789350090   -1.16963243997522   -1.82206042522912
C         2.41302322453354   -0.00661996666091   -2.57829039674114
C         2.78949160381081    1.16063278318004   -1.81769902499145
C         3.40974860918232    0.71661362744579   -0.59491822854537
C         3.40870560242958   -0.72585674058518   -0.59735822180477
C         1.96711606594351    2.27781987743817   -1.80962506534077
C         0.73761080574052    2.27353936266771   -2.56521629023809
C        -0.25510343271978    2.98729709423044   -1.81294966586377
C         0.37381244777866    3.44741576130430   -0.57945297501573
C         1.74018296977231    3.00218668117491   -0.58626337821627
C        -1.56649983566908    2.57646080807111   -1.82743380565451
C        -1.93114030384522    1.40858247810946   -2.56126679213866
C        -2.92607978961123    0.68491043336766   -1.80968399514838
C        -3.18390321221883    1.39856986656768   -0.60028357328963
C        -2.49311928916366    2.74617947617591   -0.64169772862263
C        -2.93375661871463   -0.70800986185509   -1.82864669899771
C        -1.94125647955733   -1.42643223528331   -2.58864482830618
C        -1.56477046763327   -2.59468262371653   -1.83009326992260
C        -2.32923409538162   -2.59672203472799   -0.60892931413926
C        -3.17428908582833   -1.43267545270131   -0.61320052870221
C        -0.98484198707788   -0.73004409128064   -3.31150662254182
C        -0.98220588744909    0.71097869312468   -3.30532510801229
C         0.38221444820223    1.15420089764710   -3.30680589967935
C         1.23332416428815   -0.00898627469741   -3.31099476940582
C         0.38774632153820   -1.17495785348864   -3.31270005555156
Cl       -1.92623906228871    0.00797393331763    5.24531910002201
Cl       -3.69909912242683    4.07928430405844   -0.94762233474182
