180
 energy: -613.308701870009 gnorm: 0.936548547105 xtb: 6.4.1 (a3dbbd7)
C        -1.27272821055131   -0.01676020086745    3.39040057930571
C        -0.39606004449065   -1.22563198291089    3.41131284461381
C         1.02269591399438   -0.75663243128074    3.39799623872120
C         1.03748325537251    0.73872215223316    3.40204003265892
C        -0.38535858056243    1.18325155453776    3.40759515976626
C         2.39897799305547   -2.67696693977593    0.58729690384237
C         3.27122727486266   -1.45309444919681    0.59264846425167
C         3.03052288168269   -0.70725913866062    1.88474279305232
C         1.94864971084306   -1.40438767895939    2.53551996412987
C         1.63018450290027   -2.65042312942157    1.87699093777646
C         3.17206192145356    1.39758808162789    0.62616896977057
C         2.41825682651747    2.65685172876687    0.58132516277361
C         1.62432623116888    2.61950857537802    1.85362847411373
C         1.98518831022880    1.39190834785692    2.54154435956778
C         2.90204337747431    0.73342666590519    1.78020436509000
C        -0.39841834495825    3.58167025065749    0.58618183574132
C        -1.73182846079039    2.95915515829501    0.62296914811813
C        -1.94993138240190    2.29620910053265    1.73919964703670
C        -0.79637926020203    2.35554088286836    2.61776073120717
C         0.23238354502691    3.10258145781704    1.85219329046170
C        -3.49167475020639    0.71708204979106    0.58569878890349
C        -3.38523917217182   -0.72091916223500    0.59663715176776
C        -2.87347486567943   -1.19477649906906    1.86619092615195
C        -2.41456045785042   -0.00033715692912    2.54943369848307
C        -2.87086263041178    1.19788482591231    1.87439956289377
C        -1.78062839477214   -3.11938717927461    0.60153544684769
C        -0.34373651823484   -3.45093554566105    0.53740586776276
C         0.22161753319735   -3.12683525777818    1.86005791746336
C        -0.78742808702184   -2.27733071282393    2.49892876935319
C        -1.91034349660675   -2.28081997862226    1.81030014499737
C        -0.24043458645563   -3.03996657626369   -1.85042471908098
C         0.72141039218850   -2.33806143266634   -2.53358606816335
C         1.91934706584290   -2.32326292388469   -1.78947369620252
C         1.70987323452880   -3.00995130766065   -0.64478061695485
C         0.35563144942085   -3.47273726628624   -0.60111806531435
C         2.87029656391598   -1.20594820485460   -1.88517983716170
C         2.35685804526130   -0.00466463559528   -2.57524365603921
C         2.87474713863528    1.20465621560898   -1.89316229602780
C         3.49531924437221    0.72365635814183   -0.60328226065486
C         3.37349997509223   -0.70881541607472   -0.61604175528759
C         1.95076366430874    2.30654918405227   -1.76834228159977
C         0.77359803059159    2.38446267671857   -2.62909181410934
C        -0.22396381153021    3.01048536178418   -1.76653113876870
C         0.36583252794501    3.42428852241399   -0.64213400854083
C         1.71466222493570    2.98746162794474   -0.64594090493641
C        -1.61718884354522    2.66482451381176   -1.88482804436316
C        -1.97413521044004    1.39965138678576   -2.54238552103042
C        -2.89852859476337    0.73384452439649   -1.79669720381358
C        -3.16661384362404    1.39832433830970   -0.63505868311617
C        -2.42039459477727    2.66064199847497   -0.60387749111038
C        -3.03087312002315   -0.71508146909955   -1.90214266164814
C        -1.91314252463990   -1.42328121654895   -2.58103099057825
C        -1.58419454112569   -2.59670604846692   -1.80977846460550
C        -2.28825052032075   -2.57919612237183   -0.65151996843819
C        -3.25434000025640   -1.46889393650164   -0.61063081180916
C        -1.00527628925714   -0.75011910212890   -3.26606362932474
C        -1.03659245077359    0.71957140599137   -3.40248747714925
C         0.39789743128256    1.18123529362146   -3.42000584436134
C         1.23882165821724   -0.01689271231385   -3.25555985514687
C         0.39076119468200   -1.21672710881237   -3.42307374558336
C        -1.94138013130275   -0.01715906972581    4.77689504601427
F        -1.48952081333006   -0.02423273256684    5.94623836380292
F        -2.81297861031204   -0.93678022753669    5.03235431513248
F        -2.86332941836851    0.87060985414183    4.97110877154928
C        -0.61355009525530   -1.85291009918934    4.77427796024095
F        -0.46561306936154   -1.42564328967886    5.94294157959643
F        -1.78151521077959   -2.42395636750563    4.95712234664862
F         0.00288121645291   -2.94492417971908    5.03993107606565
C         1.56632467093098   -1.14079592125936    4.78211294096727
F         1.19344123728411   -0.89315323408025    5.95629146962747
F         1.71484660546278   -2.37474134811717    5.05716328940283
F         2.80992057400297   -0.91750083884746    5.03265086956620
C         1.59180767946405    1.10424068397200    4.77219063543421
F         1.24623859412996    0.83780244649044    5.94486582266964
F         2.87484294039657    0.88580440234315    4.95731282016848
F         1.81458389368167    2.34229260180496    4.98963675927868
C        -0.59359632849245    1.69658559432412    4.83546248826199
F        -0.37320019662280    1.20724822063066    5.99270986583146
F        -1.66051641690516    2.11456669819089    5.44961145911784
F         0.21133580185924    2.73760630486369    5.58480765895590
C         3.34401958185789   -3.85126433098589    0.71374318024091
F         4.11793786304077   -4.13079979298510    1.64208198252278
F         4.10994715655746   -4.10763536599961   -0.30196453553751
F         2.74535318218450   -5.04395561602517    0.60835224887589
C         4.69286803372687   -2.00117270777120    0.74584027703727
F         5.22464568702587   -2.63852363702329    1.68037939697620
F         5.20180373220366   -2.66400920367507   -0.23523175267281
F         5.67540405236909   -1.15450509998593    0.70110392422145
C         4.28869801298412   -0.92416596324625    2.73411509263918
F         4.48388465509683   -2.05060541658681    3.26042554043109
F         5.34666059788262   -0.31496294857091    2.30194975818428
F         4.24997265618653   -0.33857555948033    3.89205120116115
C         2.31452481641760   -3.71156334048438    2.75003697867870
F         3.55653533403023   -3.56732129508123    3.23908385201748
F         2.45684533527029   -4.91746691425158    2.42907845715928
F         2.09542477081892   -3.80186327232368    3.99995748414426
C         3.40159393765460    3.77548583453901    0.73180086784991
F         4.34643942159746    3.52094800269932    1.64928680962839
F         4.27103372475748    3.88298718636292   -0.20193485241240
F         2.91893399850495    4.98961966135910    0.62375113345250
C         2.18635764491755    3.69214840572927    2.67752230587659
F         3.86421701080635    3.40524547575144    3.20630949876265
F         2.58324303461613    4.81922602278947    2.38726045546027
F         2.29552957397634    3.67014019326881    3.91700894365862
C        -0.60124491933951    5.08619684942160    0.75506534252856
F        -1.62717680570535    5.40637620661445    1.53403633776551
F        -1.15503761048254    5.64751047339443   -0.26905039985503
F         0.55287880623183    5.71977556642209    0.57694116051200
C        -1.24665077281194    3.34581445277312    3.65721415911396
F        -2.05001428525649    4.50136277348760    3.27195152515444
F        -2.34919496463031    3.19846351328530    4.28975669475690
F        -0.53905668667406    3.84055295156745    4.50521555439724
C         0.39136812350378    4.39548586255304    2.67848570113702
F        -0.48073541397581    5.27651268435179    2.95833110702661
F         1.03120405452805    5.61038229287009    2.27651943771302
F         0.85069103462830    4.67210513001670    3.86686780049609
C        -4.99771023499937    1.03946542935711    0.75447591768582
F        -5.67441888070139    0.38734202700579    1.61333360802905
F        -5.72466584735316    0.64459684446303   -0.25019175810701
F        -5.34382924137809    2.26892753767620    0.75559870411666
C        -4.05802991588549   -1.75328418427780    2.66794128799472
F        -5.02025062747546   -0.96793380197925    2.86732150582463
F        -4.64656684017913   -2.74591493253789    2.11557070096536
F        -3.73465640646855   -2.16224571786372    3.84440648433708
C        -4.03267401168099    1.76066667553948    2.70223613056351
F        -4.91547209891667    0.94997347291771    3.15255052347988
F        -4.51151652903635    2.89076978573099    2.27905361912955
F        -3.77518900907091    2.12618656810683    3.88977106025938
C        -2.55174716572886   -4.40876655353772    0.82452162038230
F        -2.33465952986312   -5.02022587892673    1.89921354896515
F        -2.33545165161533   -5.25049538374740   -0.16146806898902
F        -3.82000937074360   -4.24789639722794    0.96096830309807
C         0.26962244140485   -4.44444465892895    2.64128438052339
F        -0.83974474140244   -5.02664904113917    2.87335894819153
F         0.72867605915074   -5.46018421144239    1.91180792944252
F         0.41204534672260   -4.40953025379917    3.91031512981081
C         4.04430196114618   -1.75699739789260   -2.67716796556743
F         5.01912760285227   -0.97540170553016   -2.86113183152398
F         3.69539190274782   -2.08704941141592   -3.89307411949804
F         4.59454556727476   -2.78556742013648   -2.11992665162790
C         4.01691371002981    1.75184940298065   -2.72584204996423
F         4.91131207036734    0.95257078040171   -3.16450906874870
F         3.67133477592879    2.06579740383568   -3.94162129208451
F         4.50095542061027    2.88254354798271   -2.30103220117111
C         4.99651064362702    1.03888438789645   -0.76239174327201
F         5.67587529982706    0.38693783757663   -1.61682937374235
F         5.34013918816266    2.27710005867592   -0.76455860384452
F         5.72984603322895    0.69065417839528    0.24578612803583
C         1.11561473871618    3.47043898091817   -3.67154770093562
F         1.49167363612456    4.59885406068874   -3.07675371025524
F         2.19468439340774    3.34662131831008   -4.32266270396972
F         0.13141913282851    4.01391995466728   -4.28601759173564
C        -2.24596093211239    3.77324002831426   -2.71728000289498
F        -3.45169845011594    3.50063393067043   -3.17423855863658
F        -1.78773055380444    3.90550754857718   -3.90543683554878
F        -1.97065247569862    4.97697987778051   -2.29644539797760
C        -3.44739846756386    3.76659616353102   -0.78042372036783
F        -4.39998071289925    3.49846135466588   -1.64502121037739
F        -3.00489593381055    4.97103556918396   -0.77217494211254
F        -4.25795227328262    3.88957872375889    0.22742079516688
C        -4.26843746767735   -0.95740530380232   -2.73468528567978
F        -4.39449931107753   -2.18767045000473   -3.19365400123891
F        -4.18957085880736   -0.44884728597227   -3.93187044762642
F        -5.33412934763732   -0.33606223425756   -2.31101146759465
C        -4.64052331008985   -2.11366023082495   -0.79275620261127
F        -4.68070673872990   -3.09476611015389   -1.66573404569518
F        -5.65116549777012   -1.31700594564198   -0.77897597153802
F        -5.03562736618992   -2.87247299147025    0.16328847088979
C        -1.57216499379348    1.03281624193446   -4.80057310914209
F        -1.11215395912596    0.38330973755685   -5.78197197489569
F        -2.78260911188060    0.58182890934146   -5.00301060569758
F        -1.78379848421981    2.28277931627506   -5.05700279003950
C         0.66209478251079    1.63665669716270   -4.84816638559698
F         0.60569502331855    0.81752657850856   -5.89680282936235
F        -0.00624607414650    2.52063329948379   -5.45405977793330
F         1.90082661394361    1.73570875862689   -5.23504424757566
C         0.56924042212961   -1.77047853285378   -4.80852336797688
F         0.28616840320154   -1.02294150127578   -5.77284740257113
F        -0.25553062155603   -2.78108361303734   -5.02516737344983
F         1.81707221332557   -2.09630107074247   -5.04655094431304
