62
 energy: -137.535279303193 gnorm: 0.000164071363 xtb: 6.4.1 (a3dbbd7)
C        -1.30023832320112    0.00000000000017    3.54192235135374
C        -0.37413136892184   -1.17394627624212    3.32110458897791
C         0.97823748611356   -0.72150466636921    3.29059541800409
C         0.97823748611352    0.72150466636959    3.29059541800412
C        -0.37413136892190    1.17394627624256    3.32110458897814
C         2.33503396663146   -2.58175477351438    0.59262311425622
C         3.18138696204320   -1.41498063259408    0.59477338180085
C         2.94406036641275   -0.69442345880573    1.81964905323078
C         1.94891991718256   -1.41548194743217    2.57266072515395
C         1.57558860695667   -2.57701269883185    1.81497014741373
C         3.18138696204319    1.41498063259415    0.59477338180077
C         2.33503396663148    2.58175477351447    0.59262311425606
C         1.57558860695669    2.57701269883205    1.81497014741358
C         1.94891991718255    1.41548194743243    2.57266072515390
C         2.94406036641272    0.69442345880590    1.81964905323075
C        -0.36418055754143    3.44159157491603    0.58995820218246
C        -1.73881328140179    3.00073377361775    0.59528705050558
C        -1.97338817150507    2.29069264043624    1.81690121034984
C        -0.73565916700809    2.27459022645947    2.57490645963341
C         0.25029742073966    2.99500337131696    1.81489987300309
C        -3.40257875613313    0.71715219224225    0.58459370658429
C        -3.40257875613313   -0.71715219224195    0.58459370658431
C        -2.77506071612079   -1.14907400511308    1.81543035963772
C        -2.42336056063388    0.00000000000023    2.57115987688758
C        -2.77506071612083    1.14907400511348    1.81543035963770
C        -1.73881328140185   -3.00073377361753    0.59528705050575
C        -0.36418055754151   -3.44159157491588    0.58995820218266
C         0.25029742073962   -2.99500337131673    1.81489987300323
C        -0.73565916700809   -2.27459022645911    2.57490645963342
C        -1.97338817150509   -2.29069264043588    1.81690121034992
C        -0.25066127505819   -2.99506248253320   -1.81423603581993
C         0.73526930693196   -2.27462700910778   -2.57422990579838
C         1.97301070809531   -2.29065323018789   -1.81619763815829
C         1.73845127292627   -3.00075733544739   -0.59461666612366
C         0.36382548367566   -3.44164056912702   -0.58928542467069
C         2.77472990351030   -1.14908784633633   -1.81466931994881
C         2.42287812765722   -0.00000000000006   -2.57030105931644
C         2.77472990351033    1.14908784633624   -1.81466931994889
C         3.40232892536742    0.71716453897056   -0.58391070777702
C         3.40232892536742   -0.71716453897057   -0.58391070777699
C         1.97301070809536    2.29065323018782   -1.81619763815844
C         0.73526930693202    2.27462700910768   -2.57422990579854
C        -0.25066127505812    2.99506248253318   -1.81423603582013
C         0.36382548367573    3.44164056912706   -0.58928542467091
C         1.73845127292633    3.00075733544740   -0.59461666612386
C        -1.57594947194921    2.57705898626626   -1.81431208576916
C        -1.94929918688129    1.41552770895218   -2.57203759365985
C        -2.94440715271245    0.69442936458919   -1.81899824730657
C        -3.18169370765069    1.41495343395682   -0.59410660896423
C        -2.33538788402522    2.58175407333029   -0.59196207891453
C        -2.94440715271246   -0.69442936458912   -1.81899824730655
C        -1.94929918688132   -1.41552770895220   -2.57203759365978
C        -1.57594947194928   -2.57705898626624   -1.81431208576900
C        -2.33538788402529   -2.58175407333014   -0.59196207891438
C        -3.18169370765072   -1.41495343395664   -0.59410660896416
C        -0.97863137857586   -0.72151824694021   -3.28995242868768
C        -0.97863137857585    0.72151824694011   -3.28995242868771
C         0.37374228705070    1.17394173531711   -3.32032059769119
C         1.29988790698676   -0.00000000000008   -3.54098374292057
C         0.37374228705067   -1.17394173531724   -3.32032059769110
Cl       -1.94495834479829   -0.00000000000344    5.26842952024126
Cl        1.94486939121267   -0.00000000000035   -5.26757398769669
