62
 energy: -137.539699437528 gnorm: 0.000096200767 xtb: 6.4.1 (a3dbbd7)
C        -1.30345047760475   -0.00112105934636    3.50966069912264
C        -0.37269188801608   -1.17986849455757    3.29228735774502
C         0.98079329586478   -0.72073322379511    3.26850951912564
C         0.96396457842506    0.72223436848167    3.25875914355608
C        -0.38074567513013    1.17574054307541    3.29253803223987
C         2.34354274078580   -2.59001515619410    0.57433311752590
C         3.15208963498555   -1.41655690808086    0.57365051307078
C         2.90628178032290   -0.69527839535695    1.80165038170514
C         1.95774979331913   -1.41286357025530    2.56990640695416
C         1.69511627429526   -2.75907995804360    1.93317677393090
C         3.17261160410831    1.42160872390620    0.57889022266679
C         2.33082778722450    2.59377565226651    0.57776556591748
C         1.57152975269192    2.59158134202291    1.80199448756777
C         1.94177994890498    1.42554554462109    2.55027143208488
C         2.92368728388190    0.70392275937147    1.80126192933002
C        -0.36506451579279    3.45833263973436    0.57783378028647
C        -1.73901930028637    3.01211143561279    0.58108165593521
C        -1.98301656787334    2.30793735665892    1.80742196982903
C        -0.74678975858585    2.28389479554003    2.55614208558800
C         0.24516443386280    3.00591778016796    1.79649894232449
C        -3.40777777428827    0.73330986524925    0.56811012743563
C        -3.41212097982782   -0.70297301098803    0.56864288680370
C        -2.78848929090445   -1.13329805845183    1.80580189561669
C        -2.44419159104692    0.01240196092387    2.55588576400622
C        -2.78493413021073    1.16495226507787    1.80296792842400
C        -1.74199104277993   -2.97382145438251    0.59575811846108
C        -0.35526246684682   -3.41343583177367    0.60481866855133
C         0.23965383425621   -3.02318896764814    1.81336158548228
C        -0.73220304270076   -2.28127786066116    2.55501358775765
C        -1.98557672596136   -2.27779695274099    1.80381517343189
C        -0.24357201129344   -3.00644538830797   -1.80085154273887
C         0.74740328598849   -2.27996635772966   -2.56831066269704
C         1.97442612741140   -2.28180455513259   -1.82039037963676
C         1.74330365613802   -3.00094977991538   -0.59483517159518
C         0.36359205380965   -3.45565173360454   -0.60281589033624
C         2.79422546697107   -1.15774730579601   -1.82873711818487
C         2.41581402372201    0.00543362794217   -2.58705305157852
C         2.79145515183792    1.17301154007146   -1.82833537294095
C         3.39934658679659    0.72607659294463   -0.60078879819480
C         3.39792037884841   -0.71576534785604   -0.60452167176482
C         1.97186520071555    2.29378289258495   -1.82673022395439
C         0.74492549635691    2.29451355075751   -2.58480747384489
C        -0.24456208269260    3.02020515915005   -1.83150338029785
C         0.36622895782581    3.46206729017211   -0.60353258756599
C         1.73754467020650    3.01895658701882   -0.60259422693553
C        -1.56609642585514    2.58778737704319   -1.82776171687842
C        -1.94660986616750    1.42314933470798   -2.58636942449016
C        -2.94726969246443    0.70549293418813   -1.83454042033947
C        -3.18101824022909    1.42703618447681   -0.60942188968336
C        -2.32710062406639    2.59105570206555   -0.60674628637904
C        -2.95131823604779   -0.68214954628452   -1.83385192829497
C        -1.95138815095299   -1.40794818347989   -2.57883840312378
C        -1.58009204787514   -2.57025886583020   -1.81030647868407
C        -2.33515214642682   -2.56537098728972   -0.60331305149129
C        -3.18889341624939   -1.39960478499307   -0.60639628999467
C        -0.99356216913926   -0.71655701390223   -3.30514021912753
C        -0.99086530397566    0.72391589065157   -3.30981276544393
C         0.38146953530296    1.16851711020568   -3.31164201312353
C         1.22752233952514    0.00372784384278   -3.30752910288362
C         0.38125324575831   -1.16236858193466   -3.30035619613036
Cl       -1.88325728575760   -0.07369794680971    5.23988647125951
Cl        2.55355927375352   -4.07735345969797    2.87845072212406
