62
 energy: -137.558950055267 gnorm: 0.000162441785 xtb: 6.4.1 (a3dbbd7)
C        -1.32333194775417    0.00617886347970    3.59125188963251
C        -0.38909456310608   -1.27772716531095    3.58793274117145
C         0.98734837171535   -0.72675165446744    3.28582848483634
C         0.97037352147027    0.69420630050098    3.25749094477592
C        -0.37633960723915    1.14742685553706    3.29074190055216
C         2.33092254703306   -2.58746567485154    0.56610397604514
C         3.16875994483946   -1.41579758165486    0.56774606192583
C         2.91978889080344   -0.69314490348597    1.79074016083681
C         1.93018806170321   -1.40549148670748    2.54814074589443
C         1.57476788296703   -2.59634073810083    1.79100274817011
C         3.18328087896891    1.41909085132624    0.57258499213333
C         2.33432229320876    2.58580968143883    0.57559918777772
C         1.57332139543398    2.57095369604789    1.79851755002390
C         1.94352282881158    1.40414426944103    2.54285112768194
C         2.93804115459266    0.69543633516321    1.79366637265872
C        -0.36752716666001    3.44413435035873    0.58029879258012
C        -1.74013210357057    3.00741588983283    0.58054459941955
C        -1.97818665379860    2.28654468588757    1.80361199533287
C        -0.73393250395930    2.25581684802015    2.55761528373596
C         0.24647420110131    2.98080949443068    1.80023381740862
C        -3.39591089216029    0.72883802558845    0.57533866561121
C        -3.37932885665645   -0.70504006359254    0.57786353554246
C        -2.74934612856665   -1.12865052488571    1.82052481704193
C        -2.40026274086307   -0.01382700939334    2.55826017594831
C        -2.77435746218519    1.16021035149421    1.80187148511327
C        -1.70577977915925   -3.00504292266898    0.57191390059864
C        -0.34657433486683   -3.46193150719564    0.56452064530943
C         0.25810980605866   -3.00738238851431    1.79111395103090
C        -0.74203335365356   -2.29289841924391    2.55243835495534
C        -1.91196172287597   -2.27950749485726    1.81757326885181
C        -0.23558165862281   -3.01371296632646   -1.83961821271520
C         0.75175047781152   -2.28700579367404   -2.59867644532734
C         1.98089777627659   -2.28868303835222   -1.84308617931945
C         1.74918768154887   -3.01946296828987   -0.62050040464920
C         0.38088379041600   -3.46658963937948   -0.62079308111870
C         2.79204993046375   -1.16413556659148   -1.83875967224219
C         2.41002754086118    0.00666527739579   -2.59106683151125
C         2.78807241943814    1.16926264052202   -1.83130610074559
C         3.40298548527550    0.72369088805355   -0.60835037131266
C         3.40110069057525   -0.71955382898331   -0.60923004493565
C         1.96912615256614    2.29475463280888   -1.82840259178522
C         0.74474441569639    2.29528025280401   -2.58515694980539
C        -0.24988429155059    3.01642431380723   -1.82795956514323
C         0.36353023978106    3.45499162487799   -0.59844520421847
C         1.73735095077191    3.01278425815446   -0.60243935985793
C        -1.56944867307335    2.59059487249377   -1.83048045584010
C        -1.94787757007795    1.42311330884846   -2.58910001301826
C        -2.94122296022124    0.70465889669871   -1.83002690890673
C        -3.17947337159538    1.42642572884929   -0.60816005298080
C        -2.33307692209202    2.59081264516620   -0.60600270171083
C        -2.93172079240255   -0.68656028280689   -1.82266620418654
C        -1.94059925011627   -1.40887980593779   -2.58138532694875
C        -1.55636984787224   -2.57670213587000   -1.82754179967090
C        -2.29848528094837   -2.57416283302738   -0.59738768824741
C        -3.15456863482430   -1.39758782868201   -0.59434922362650
C        -0.98936986995949   -0.71482485845558   -3.31408037280858
C        -0.99159024528376    0.72723605185279   -3.31429029098428
C         0.38014149579772    1.17201579903766   -3.31523274930469
C         1.22728121177112    0.00778684511203   -3.31823795360647
C         0.38205649969615   -1.16057927312445   -3.31917058806611
Cl       -2.09995733548554    0.29360223981566    5.20530702406437
Cl       -0.35034641589922   -2.11046483688082    5.19906768498811
