62
 energy: -137.582502297702 gnorm: 0.000191661295 xtb: 6.4.1 (a3dbbd7)
C        -1.30590116921253    0.00000001567147    3.57757176152063
C        -0.38263072918137   -1.16611988460214    3.28594713326985
C         0.97257360011708   -0.71952685383641    3.26855036156993
C         0.97257360393254    0.71952687661233    3.26855035706938
C        -0.38263072280031    1.16611990839632    3.28594711558760
C         2.33524251788762   -2.58180084782129    0.58297560924179
C         3.18400948631453   -1.41552950094589    0.58356352240870
C         2.94546216993980   -0.69332182128227    1.80773970239862
C         1.94587859890287   -1.41427330658132    2.55713395548397
C         1.57508549086151   -2.57711094374314    1.80584960741731
C         3.18400948863201    1.41552950505450    0.58356351555631
C         2.33524252443367    2.58180085532207    0.58297559657952
C         1.57508549911774    2.57711096120423    1.80584959477988
C         1.94587860257458    1.41427332619471    2.55713394815411
C         2.94546216697093    0.69332183247809    1.80773969804439
C        -0.36288130906733    3.43718735277890    0.57877184631344
C        -1.73308048839264    2.99275806187322    0.57466803615127
C        -1.97781534026240    2.27495021593274    1.79391193369887
C        -0.73705399062714    2.27492877710329    2.56485825367574
C         0.24768304301490    2.99273720127117    1.80541472838427
C        -3.36595856117923    0.71952836573516    0.57279524626493
C        -3.36595856520322   -0.71952834422038    0.57279525207018
C        -2.78138655519634   -1.16622452582038    1.79553281828222
C        -2.63387945432325    0.00000001330386    2.75246509949954
C        -2.78138654551183    1.16622454978702    1.79553280691404
C        -1.73308049714449   -2.99275804180173    0.57466805123502
C        -0.36288131954613   -3.43718733486814    0.57877186324114
C         0.24768303368936   -2.99273717781289    1.80541474280110
C        -0.73705399969695   -2.27492875159852    2.56485826834259
C        -1.97781534870447   -2.27495019165410    1.79391194672836
C        -0.23997281723449   -3.00745520896707   -1.83058397368196
C         0.75299400769109   -2.28843213444537   -2.58424492642487
C         1.97874430839071   -2.28844004526083   -1.82262472723295
C         1.74283068168211   -3.00747353949882   -0.59856807241814
C         0.36922645263041   -3.44814234276405   -0.59947054879063
C         2.79619289183637   -1.16591919478910   -1.82283451436051
C         2.41764786691101   -0.00000000377383   -2.58077464088123
C         2.79619289549576    1.16591918948614   -1.82283451982800
C         3.40984226748884    0.72111265080246   -0.59721313494171
C         3.40984226668696   -0.72111265365466   -0.59721313245071
C         1.97874431526365    2.28844004229211   -1.82262473799459
C         0.75299401454813    2.28843213149502   -2.58424493731635
C        -0.23997280839354    3.00745521309726   -1.83058398880786
C         0.36922646322527    3.44814235172538   -0.59947056558952
C         1.74283069040095    3.00747354371030   -0.59856808720821
C        -1.56169806310449    2.58180171760337   -1.83839559769462
C        -1.93813705171563    1.41553337415918   -2.59911471419781
C        -2.93003721193729    0.69332167009901   -1.84304786071867
C        -3.15919733949564    1.41426985141843   -0.61493805274631
C        -2.32140099747848    2.57711626822321   -0.61523817715143
C        -2.93003721280325   -0.69332165809468   -1.84304785804184
C        -1.93813705617206   -1.41553336906076   -2.59911470795480
C        -1.56169807076653   -2.58180170929849   -1.83839558464048
C        -2.32140100460944   -2.57711625146072   -0.61523816401433
C        -3.15919734376118   -1.41426983273334   -0.61493804524352
C        -0.97950155108334   -0.72110770540464   -3.32453312162024
C        -0.97950154894962    0.72110770306801   -3.32453312271779
C         0.39114499989565    1.16579873681468   -3.31712243254744
C         1.23838328504598   -0.00000000407202   -3.31346403302660
C         0.39114499628058   -1.16579874211765   -3.31712242719054
Cl       -1.61062141909523    0.00000000760946    5.36389556140414
Cl       -4.10040034691282    0.00000006831527    3.81688874111361
