63
 energy: -142.098919696206 gnorm: 0.000121928359 xtb: 6.4.1 (a3dbbd7)
C        -1.29610660259285    0.00941531555753    3.54141081591174
C        -0.36975088051552   -1.16756663084635    3.31580493285552
C         0.98463329645088   -0.71805322606676    3.29323362870731
C         0.98986063215041    0.72288409273240    3.29257199618180
C        -0.36187130356404    1.17966233425641    3.31277396772881
C         2.33552944086368   -2.57623852247972    0.59230176903650
C         3.18286124943679   -1.42011548539329    0.59477026731877
C         2.95166992272249   -0.69626512367304    1.82111251587845
C         1.95434392930378   -1.41461090440066    2.57447259408464
C         1.57736819800545   -2.57336125055175    1.81802985357551
C         3.18730292432773    1.41200782626096    0.58981442809740
C         2.34751423959889    2.58342959970573    0.59607294857490
C         1.59503596514025    2.58058332333358    1.82065039912556
C         1.96342013566984    1.41393569246590    2.57235161806263
C         2.95464318196738    0.69011733198940    1.81853858055928
C        -0.35466794423559    3.43551842270689    0.59788724389162
C        -1.73077379598442    2.99843207878485    0.61892544353627
C        -1.95321693697657    2.30091685973838    1.79152445343291
C        -0.71649938185718    2.27937538998956    2.57155204741253
C         0.26971120828361    2.99879516157110    1.82092107862810
C        -3.38878933937236    0.70945452752356    0.57087069241933
C        -3.38656540647758   -0.72600107076480    0.56968395547625
C        -2.77006133996776   -1.15586325382323    1.79994348433150
C        -2.41260570205840    0.01924516474515    2.55282298922886
C        -2.77235656811894    1.13920863954015    1.81909207735739
C        -1.73203620920938   -3.00545352194288    0.59400620688694
C        -0.36462827104587   -3.43510631844556    0.59224969303202
C         0.25182631833162   -2.98750869150747    1.81681712567816
C        -0.73196299220179   -2.26867954727410    2.57735248652831
C        -1.97480032142115   -2.28569954933802    1.81349378032269
C        -0.24699405316405   -3.02899267519525   -1.82054638233282
C         0.80566847544859   -2.46226265198677   -2.74809386632511
C         1.98788245561619   -2.30170539760576   -1.81728825321874
C         1.73653735547893   -2.98911115894556   -0.59690971966450
C         0.36169640503635   -3.43126368723099   -0.59621421064730
C         2.78243859158390   -1.17397214100850   -1.81036969793541
C         2.41449037554434    0.00116372975679   -2.57770530109242
C         2.78152746317803    1.15836620474662   -1.81703169654126
C         3.39858762889181    0.71491661069470   -0.59043013405958
C         3.39704182611819   -0.72678449885237   -0.59028985813728
C         1.96480433219876    2.28838486806577   -1.80685061930692
C         0.73507757403870    2.28614999345111   -2.56034197337886
C        -0.25779297993815    3.00114437561546   -1.80956390142603
C         0.37192230688226    3.45769476016361   -0.57531467520367
C         1.73857926890609    3.00704477721760   -0.58467903588776
C        -1.57020149053922    2.58987572317038   -1.82470254179870
C        -1.93252185875213    1.42106671704958   -2.55681117254300
C        -2.92676428308401    0.69533941262897   -1.80446955144361
C        -3.18369876934515    1.40398632959237   -0.59949058882181
C        -2.49646302342848    2.75479958079314   -0.63782432948319
C        -2.92441284859095   -0.70462952176151   -1.82699343119472
C        -1.94572943234613   -1.42027907902744   -2.58531401306275
C        -1.55288538539841   -2.59032925456637   -1.81754616154412
C        -2.31824528945864   -2.58939307717652   -0.60014018524838
C        -3.16447741054966   -1.42700299025149   -0.60676424206439
C        -0.96744238565835   -0.72287022007868   -3.29393113187545
C        -0.98177210316457    0.72541043390644   -3.29643367545223
C         0.37593383755438    1.16586219958834   -3.29702872269977
C         1.21693675325910   -0.01157107298046   -3.29338436465671
C         0.38142714632594   -1.15859277659749   -3.31971575185970
Cl       -1.93495405781320    0.01564505400982    5.24895071225761
Cl       -3.70490553249144    4.08572980531572   -0.93418121182202
Cl        1.19827638178984   -3.66051216908059   -4.08341200434056
