65
Properties=species:S:1:pos:R:3 energy:=T -151.246101225486=T gnorm:=T 0.000252272312=T xtb:=T 6.4.1=T (a3dbbd7)=T pbc="F F F"
C       -1.29673850      -0.00200121       3.52148031
C       -0.37732504      -1.17547692       3.24398022
C        0.93808498      -0.71702593       3.21596300
C        0.91289442       0.70949134       3.17397897
C       -0.37280191       1.16190226       3.23573108
C        2.30130965      -2.57293552       0.57145025
C        3.13894845      -1.39783868       0.57228414
C        2.92948470      -0.68550844       1.79172320
C        2.07606374      -1.52428478       2.71626003
C        1.57216239      -2.60917301       1.78997146
C        3.13491390       1.39170922       0.57103188
C        2.29526430       2.56149944       0.56834999
C        1.55978964       2.60074600       1.79113723
C        2.07517799       1.52311153       2.71999433
C        2.92705258       0.68276551       1.79211037
C       -0.35151685       3.42706320       0.56830387
C       -1.71674663       2.97360118       0.56716411
C       -1.96630481       2.28134839       1.79263105
C       -0.80187359       2.48717128       2.73834826
C        0.26011037       3.02808832       1.79582037
C       -3.34075255       0.71423316       0.56676163
C       -3.35267483      -0.72570476       0.56765059
C       -2.78069247      -1.17590360       1.78638301
C       -2.63064184      -0.00648403       2.73943068
C       -2.74826535       1.16315676       1.78663839
C       -1.73022509      -3.00426050       0.55707972
C       -0.36138468      -3.44888132       0.55774409
C        0.25093153      -3.01559697       1.78478972
C       -0.75382862      -2.32118392       2.56128943
C       -1.97145037      -2.29292647       1.78690342
C       -0.24634945      -3.01873895      -1.85549822
C        0.74540373      -2.29595822      -2.61066711
C        1.96710373      -2.29316564      -1.84647484
C        1.72875568      -3.01257108      -0.62246953
C        0.36576398      -3.45996685      -0.62658641
C        2.78287410      -1.17001862      -1.84760558
C        2.40824838      -0.00591104      -2.60830882
C        2.78281307       1.15998072      -1.84903574
C        3.38110113       0.71165885      -0.61697146
C        3.38149682      -0.71902832      -0.61627481
C        1.96929859       2.28344075      -1.85167667
C        0.74693773       2.28536351      -2.61291997
C       -0.24404697       3.00395567      -1.85340096
C        0.36794596       3.44222022      -0.62360954
C        1.72806059       2.99944546      -0.62363164
C       -1.56249976       2.57433652      -1.85404581
C       -1.94329543       1.40940086      -2.61275199
C       -2.93052591       0.68778304      -1.85267308
C       -3.14758416       1.40547262      -0.62155615
C       -2.30971428       2.56469240      -0.62242546
C       -2.93028880      -0.70097375      -1.85025070
C       -1.94339286      -1.42287678      -2.61314055
C       -1.56607522      -2.59027672      -1.85686015
C       -2.32081715      -2.58599222      -0.62832330
C       -3.15795395      -1.42125568      -0.62569012
C       -0.98822042      -0.72732791      -3.34409051
C       -0.98765509       0.71448379      -3.34515975
C        0.38195975       1.15952584      -3.34449642
C        1.22832966      -0.00578598      -3.34334061
C        0.38188963      -1.17239726      -3.34315979
Cl      -1.55126563       0.01238431       5.31388316
Cl      -4.08166539       0.00086161       3.81591434
Cl       3.03962095      -2.21187839       4.09988647
Cl       2.99596257       2.17443196       4.12448773
Cl      -1.19691052       3.64328187       4.07524071
