66
Properties=species:S:1:pos:R:3 energy:=T -155.824577167157=T gnorm:=T 0.000076870812=T xtb:=T 6.4.1=T (a3dbbd7)=T pbc="F F F"
C       -1.31978423      -0.00864348       3.54058069
C       -0.40791767      -1.19494463       3.30803356
C        1.02505329      -0.77011964       3.55095111
C        0.90840119       0.68990382       3.17262628
C       -0.36457222       1.10329798       3.16700498
C        2.29350134      -2.55966429       0.57230765
C        3.12629458      -1.38660743       0.57617953
C        2.89686978      -0.67519618       1.79513644
C        2.10838093      -1.54884997       2.74827971
C        1.55453223      -2.57594066       1.78774359
C        3.12777515       1.39610725       0.56947054
C        2.28964222       2.56535881       0.56389450
C        1.54867777       2.59752319       1.78360176
C        2.05764014       1.52050158       2.71692739
C        2.91105268       0.68797463       1.79168580
C       -0.35954269       3.42567045       0.55220556
C       -1.72473866       2.97194050       0.54805882
C       -1.97516881       2.27475297       1.77012311
C       -0.80287254       2.44944502       2.70430617
C        0.24918763       3.01952639       1.77786543
C       -3.35848839       0.71929195       0.54755816
C       -3.37377341      -0.71924492       0.54728719
C       -2.79508742      -1.16342210       1.76853356
C       -2.64749132      -0.00441009       2.72728555
C       -2.76461500       1.16334326       1.77015151
C       -1.73256541      -2.98057945       0.55660344
C       -0.36316463      -3.42528410       0.56265051
C        0.24953276      -2.98714076       1.78188067
C       -0.74822872      -2.25311334       2.55561393
C       -1.98066388      -2.26289783       1.77203311
C       -0.24652983      -3.01458412      -1.85548377
C        0.74757042      -2.29547230      -2.61133378
C        1.96834754      -2.29105402      -1.84624964
C        1.72471009      -3.00471887      -0.61874878
C        0.36332205      -3.45042085      -0.62341021
C        2.78339459      -1.16775184      -1.84534162
C        2.41120680      -0.00455601      -2.60963406
C        2.78378309       1.16316895      -1.85184378
C        3.37800119       0.71733131      -0.61724983
C        3.37674682      -0.71332379      -0.61287129
C        1.96933974       2.28593197      -1.85742561
C        0.74849013       2.28545054      -2.62207685
C       -0.24520584       3.00509586      -1.86719588
C        0.36389886       3.44447064      -0.63644084
C        1.72478704       3.00252703      -0.63043583
C       -1.56391522       2.57506051      -1.87102744
C       -1.94243866       1.40926931      -2.62884781
C       -2.93310106       0.68864784      -1.87057061
C       -3.15608391       1.40817835      -0.64170365
C       -2.31653334       2.56660395      -0.64237803
C       -2.93354085      -0.69919478      -1.86788949
C       -1.94220647      -1.42198226      -2.62320585
C       -1.56633599      -2.58598691      -1.86131127
C       -2.32571320      -2.57717142      -0.63528251
C       -3.16549012      -1.41665442      -0.64033760
C       -0.98409602      -0.72781386      -3.35286263
C       -0.98411939       0.71330804      -3.35648944
C        0.38598725       1.15924689      -3.35264004
C        1.23267372      -0.00658341      -3.34669907
C        0.38596398      -1.17273954      -3.34682437
Cl      -1.64042225       0.16092713       5.31377526
Cl      -4.11577665      -0.00748725       3.78068532
Cl       3.28628937      -2.41124631       3.81334580
Cl       2.97379451       2.17697799       4.12462440
Cl      -1.16973821       3.52258473       4.10633472
Cl       1.36990647      -0.81666387       5.32709768
