60
Properties=species:S:1:pos:R:3 Energy=-2284.464257019 pbc="F F F"
C       -1.23626340       0.00000000       3.32997640
C       -0.38202640      -1.17575640       3.32997640
C        1.00015810      -0.72665740       3.32997640
C        1.00015810       0.72665740       3.32997640
C       -0.38202640       1.17575640       3.32997640
C        2.34433560      -2.60145750       0.59464210
C        3.19857260      -1.42570110       0.59464210
C        2.96246730      -0.69904370       1.83090550
C        1.96230920      -1.42570110       2.59495830
C        1.58028280      -2.60145750       1.83090550
C        3.19857260       1.42570110       0.59464210
C        2.34433560       2.60145750       0.59464210
C        1.58028280       2.60145750       1.83090550
C        1.96230920       1.42570110       2.59495830
C        2.96246730       0.69904370       1.83090550
C       -0.36750900       3.48258920       0.59464210
C       -1.74969350       3.03349030       0.59464210
C       -1.98579880       2.30683290       1.83090550
C       -0.74953540       2.30683290       2.59495830
C        0.25062270       3.03349030       1.83090550
C       -3.42570570       0.72665740       0.59464210
C       -3.42570570      -0.72665740       0.59464210
C       -2.80757400      -1.17575640       1.83090550
C       -2.42554760       0.00000000       2.59495830
C       -2.80757400       1.17575640       1.83090550
C       -1.74969350      -3.03349030       0.59464210
C       -0.36750900      -3.48258920       0.59464210
C        0.25062270      -3.03349030       1.83090550
C       -0.74953540      -2.30683290       2.59495830
C       -1.98579880      -2.30683290       1.83090550
C       -0.25062270      -3.03349030      -1.83090550
C        0.74953540      -2.30683290      -2.59495830
C        1.98579880      -2.30683290      -1.83090550
C        1.74969350      -3.03349030      -0.59464210
C        0.36750900      -3.48258920      -0.59464210
C        2.80757400      -1.17575640      -1.83090550
C        2.42554760       0.00000000      -2.59495830
C        2.80757400       1.17575640      -1.83090550
C        3.42570570       0.72665740      -0.59464210
C        3.42570570      -0.72665740      -0.59464210
C        1.98579880       2.30683290      -1.83090550
C        0.74953540       2.30683290      -2.59495830
C       -0.25062270       3.03349030      -1.83090550
C        0.36750900       3.48258920      -0.59464210
C        1.74969350       3.03349030      -0.59464210
C       -1.58028280       2.60145750      -1.83090550
C       -1.96230920       1.42570110      -2.59495830
C       -2.96246730       0.69904370      -1.83090550
C       -3.19857260       1.42570110      -0.59464210
C       -2.34433560       2.60145750      -0.59464210
C       -2.96246730      -0.69904370      -1.83090550
C       -1.96230920      -1.42570110      -2.59495830
C       -1.58028280      -2.60145750      -1.83090550
C       -2.34433560      -2.60145750      -0.59464210
C       -3.19857260      -1.42570110      -0.59464210
C       -1.00015810      -0.72665740      -3.32997640
C       -1.00015810       0.72665740      -3.32997640
C        0.38202640       1.17575640      -3.32997640
C        1.23626340       0.00000000      -3.32997640
C        0.38202640      -1.17575640      -3.32997640
