63
 energy: -142.119093152721 gnorm: 0.000106669829 xtb: 6.4.1 (a3dbbd7)
C        -1.30875051863501    0.00808506035880    3.56366925441508
C        -0.37281426481861   -1.15128993606163    3.26666201574694
C         0.95322998622786   -0.70853712115744    3.26970172793476
C         0.96224465963607    0.71497695721903    3.25147523269575
C        -0.39270119855813    1.17688748878403    3.27867821732720
C         2.30984073076584   -2.56714355539176    0.58228046024413
C         3.15824690625521   -1.39900362941624    0.58272109195062
C         2.95375162978469   -0.69124383794052    1.80296866619096
C         2.07942198088674   -1.51202850281172    2.72402428193248
C         1.57661303279558   -2.59371867941716    1.79982768698037
C         3.17136929386507    1.40849759770669    0.57579887712732
C         2.32717613779506    2.57568354601060    0.57728615023201
C         1.56975223506481    2.57326731303286    1.80440471622128
C         1.94385518463247    1.42349065528704    2.55901575442976
C         2.93622988365134    0.68445233468339    1.79655760985566
C        -0.36665363562072    3.44077770642542    0.57764431056133
C        -1.73872694769346    2.99946610749837    0.57227049103480
C        -1.98800829224057    2.28592383992484    1.79273446207815
C        -0.74617954646313    2.28635596806054    2.56344620389996
C         0.24093245335405    3.00173419780980    1.80236347980119
C        -3.36982156643812    0.72452742263474    0.57072048673883
C        -3.36417386058965   -0.71574259094628    0.57362722399526
C        -2.78286185703737   -1.15883191868593    1.79333969278327
C        -2.63853349220375    0.00740635699568    2.74840520723148
C        -2.78878524920802    1.17486471636649    1.79335916990279
C        -1.72647763629449   -2.98570270851962    0.56833563731042
C        -0.35936107792350   -3.43065784908534    0.56923620265568
C         0.25429804839235   -2.98901743526873    1.79343375590627
C        -0.74584274671015   -2.28651550825184    2.56711292029578
C        -1.96593275161723   -2.26779869609206    1.79389329393450
C        -0.24324220325906   -3.00874156906625   -1.84433347400648
C         0.74874666483967   -2.28791523487356   -2.59873533698904
C         1.97221350785240   -2.28550393107333   -1.83364959432822
C         1.73290397880250   -3.00477403464983   -0.61038837086078
C         0.36871402151201   -3.44776559093723   -0.61411021340544
C         2.78854379714332   -1.16271878691636   -1.83320166294449
C         2.41339874565072    0.00204834776077   -2.59335020554283
C         2.79317403531107    1.16763766785194   -1.83473237743888
C         3.40395105181229    0.72000744386722   -0.60907616382961
C         3.39893607149514   -0.71459154608810   -0.60621813176454
C         1.97358633305702    2.28861095572513   -1.83011455535406
C         0.74936106591021    2.28981163004694   -2.58935382641742
C        -0.24371157097578    3.00882576845101   -1.83212916464068
C         0.36565442418627    3.45113364307015   -0.60418904335747
C         1.73731082324423    3.00596441035676   -0.60291421130928
C        -1.56554407441785    2.58359775930716   -1.84066024425505
C        -1.94194846897907    1.41764509173234   -2.60073348843799
C        -2.93264163358325    0.69655663327165   -1.84522504737172
C        -3.16309993946746    1.41844254418182   -0.61673505056307
C        -2.32588875852758    2.58129899751159   -0.61745444786879
C        -2.93160671061981   -0.69064469890316   -1.84306527699008
C        -1.94102157972904   -1.41348693969352   -2.60350621218898
C        -1.56341301301685   -2.57915636065130   -1.84589896798536
C        -2.31903653639509   -2.57235346275935   -0.61826938872604
C        -3.15997851888621   -1.41115995170099   -0.61770827120829
C        -0.98419774828395   -0.71817543283980   -3.33222810228987
C        -0.98407113410781    0.72351854615746   -3.33057512736222
C         0.38582706430376    1.16765627985311   -3.32501918906480
C         1.23305136947020    0.00289112341790   -3.32556710275714
C         0.38572281268895   -1.16381795782464   -3.32931962682564
Cl       -1.59965180759729   -0.01640256285729    5.34931392208632
Cl       -4.10027794468392    0.00542312381951    3.81860071610199
Cl        3.06028538291707   -2.22126886837672    4.10038432586986
