63
 energy: -142.097382688653 gnorm: 0.000126076738 xtb: 6.4.1 (a3dbbd7)
C        -1.29764535002751    0.01069002714044    3.53886791689371
C        -0.37000557117603   -1.16357692707999    3.31487537273536
C         0.98139059088784   -0.71192729703832    3.29205757979588
C         0.98844937630219    0.72939656162083    3.29626637932912
C        -0.36489461788995    1.18360651590795    3.31444761611564
C         2.34464496462601   -2.57640738023494    0.59778707275534
C         3.15924948394952   -1.41983957258151    0.58495229086858
C         2.93831888001994   -0.68664257981835    1.81583448670538
C         1.94968922582174   -1.40271342245432    2.56775783418173
C         1.57689263592748   -2.56022256529421    1.79556378257011
C         3.18919628303851    1.42093280778887    0.59136662132063
C         2.34778838233852    2.58252771246461    0.59417336298867
C         1.59292882040835    2.58494900391355    1.82151607041707
C         1.96139426434702    1.42140406234621    2.57651756302077
C         2.95122039873644    0.69785610403435    1.81819566829646
C        -0.35711733408044    3.43345771968033    0.59487033121725
C        -1.73002699680027    2.99677441214030    0.61486258772881
C        -1.95459876682484    2.30120148768210    1.79140200385152
C        -0.71936330044901    2.28176238071530    2.57203766894793
C         0.26821530657737    3.00013434070890    1.81857175719268
C        -3.38897222739710    0.71051809626768    0.56570516242449
C        -3.39214923643341   -0.72200777886987    0.56558362771204
C        -2.76945813356103   -1.15249497657539    1.79274414830430
C        -2.41508281298584    0.02279729050115    2.55150103020853
C        -2.77350876586324    1.14159345926124    1.82167463635871
C        -1.72717235219644   -2.99289749485260    0.57606356807457
C        -0.35892531356748   -3.43263567526945    0.57298793668181
C         0.25192427840097   -2.99005446022371    1.81536241546713
C        -0.72581504145252   -2.26626989222966    2.56303653014324
C        -1.96679860781931   -2.27564376298684    1.79782399753988
C        -0.23929006841882   -3.00072948878657   -1.80512465886024
C         0.75611254649036   -2.27962586273592   -2.56431036264541
C         1.98057306061845   -2.29604961155163   -1.83678906321159
C         1.85545252599847   -3.22081104622400   -0.64698924260332
C         0.36304587829930   -3.46497023750019   -0.59900204325871
C         2.77708474028360   -1.16937919395103   -1.82157199273147
C         2.39923708411972   -0.00524538634366   -2.57391161946345
C         2.77852742894464    1.15979769274716   -1.81408015348371
C         3.40319763680563    0.71248874354224   -0.59211907728873
C         3.41228880091876   -0.71819961782577   -0.59687980246234
C         1.96159975189767    2.27969240131617   -1.80913777406663
C         0.73268452235709    2.27900152846403   -2.56717281888636
C        -0.25825074674003    2.99213549166122   -1.81386216446190
C         0.37259317817270    3.45081350874291   -0.57935653549197
C         1.73588064804518    3.00732031130411   -0.58654334230847
C        -1.57071574057405    2.58393314566263   -1.82847735260848
C        -1.93735433417081    1.41758418499260   -2.56341024378387
C        -2.93204276487326    0.69358653332385   -1.81037427512689
C        -3.18702681756109    1.40580018779054   -0.60039957312866
C        -2.49600764677230    2.75329391673922   -0.64131825846888
C        -2.94028598256068   -0.69977888629509   -1.82976970155569
C        -1.94563472140046   -1.41759152423368   -2.58731392171081
C        -1.56802717059563   -2.58301698260141   -1.82554057301385
C        -2.33167247009390   -2.58570770132338   -0.61116345670155
C        -3.18077601029728   -1.42452625596340   -0.61439436387458
C        -0.98973721226167   -0.72163960347210   -3.31014812925873
C        -0.98915659074856    0.71995377294562   -3.30862412953478
C         0.37541792033202    1.16292183506570   -3.31283246748247
C         1.22404152113643   -0.00209943709295   -3.31485097875857
C         0.38312997378007   -1.16386822422187   -3.31038726826090
Cl       -1.93928965905946    0.01477362748146    5.24754936587839
Cl       -3.70086833060160    4.08777960791367   -0.94251770963039
Cl        2.75309536893220   -4.79568710549012   -0.95916634445593
