63
 energy: -142.112949535585 gnorm: 0.000118007104 xtb: 6.4.1 (a3dbbd7)
C        -1.29628880039142    0.00744618786158    3.54460993334739
C        -0.36748880441666   -1.16775596319599    3.30305849109074
C         0.98486038952650   -0.71526533004513    3.27679449223742
C         0.98132169902903    0.72464026798715    3.27110856063916
C        -0.37223666948673    1.18329633170219    3.30143183785286
C         2.33727579848062   -2.57420208852535    0.58642437197408
C         3.18885449991046   -1.41052187912955    0.58369859815720
C         2.95529865330227   -0.69005784615855    1.80828401956033
C         1.95943944012018   -1.41005014884815    2.56357998762311
C         1.58619813017603   -2.57003807500567    1.80888893072630
C         3.19147463516813    1.41921569141820    0.58137125479219
C         2.34016179210329    2.58122148978477    0.58048670204204
C         1.57720531699126    2.57239331085880    1.80295928860925
C         1.95413389542149    1.41527781322635    2.55564984786453
C         2.95403885142279    0.69730109475545    1.80697368129297
C        -0.36533606474779    3.43171917783395    0.58297799662097
C        -1.73122983842741    3.02381247253750    0.58665810681301
C        -2.09607772287943    2.46924906529318    1.95124615652733
C        -0.73150920566745    2.29040310585741    2.58458433443202
C         0.24799206265227    2.98136400731242    1.80535927440393
C        -3.37952609380012    0.71636389902649    0.58080570325984
C        -3.39154039703041   -0.72079158751472    0.57303674228641
C        -2.77091197202474   -1.15475106483132    1.79361812989891
C        -2.38893657413412    0.02597764620841    2.53150057271245
C        -2.75335506044922    1.14005474896933    1.81726797338502
C        -1.73757897623436   -3.00892067272709    0.58733426616242
C        -0.35017437361509   -3.43623659298471    0.57678154554402
C         0.25794764267425   -2.98300572565064    1.79985983377984
C        -0.72644687583560   -2.26600483811295    2.55930779796619
C        -1.96840439805220   -2.28657776070111    1.79305185664523
C        -0.24657714156194   -3.22188987543461   -1.94743273102934
C         0.76041059431926   -2.29376336786494   -2.59035073911865
C         1.95941677913598   -2.27607376336787   -1.81951198860103
C         1.72525765015785   -2.99514297312924   -0.59185226561704
C         0.37777961578771   -3.46483683216503   -0.59088691773301
C         2.79353263704445   -1.15913000718030   -1.82126638787726
C         2.42123186281086    0.00174987760856   -2.57732810739775
C         2.80476116048595    1.16973713363591   -1.82592067625268
C         3.41920671397173    0.72471002345836   -0.60014202364344
C         3.41296545086466   -0.71675701735049   -0.59833153127237
C         1.98464724880123    2.29080454798998   -1.82462393482800
C         0.75393612023377    2.28755272980787   -2.57951318788755
C        -0.23468177870308    3.00954814008179   -1.81962406473031
C         0.37339141381537    3.44682541215877   -0.59911405742514
C         1.74774855019336    3.00760268938274   -0.60015060230268
C        -1.55683222632625    2.57299911344653   -1.80615025611890
C        -1.94313861169113    1.41497049670536   -2.56705793040383
C        -2.94228047055855    0.69792216249986   -1.81717587949539
C        -3.17715509329766    1.41170330590123   -0.59282200062704
C        -2.30734653703530    2.58311654808040   -0.58110996126125
C        -2.94617513885947   -0.69389893709385   -1.82523426320477
C        -1.93754817551742   -1.41938751503738   -2.56849824327132
C        -1.58196451684677   -2.58282291246877   -1.82652247302911
C        -2.31183235449385   -2.57373601674560   -0.61504936673691
C        -3.17736094333369   -1.41422234357440   -0.60971677927687
C        -0.99144137290161   -0.72033323872969   -3.31037672222425
C        -0.98805685709763    0.71320726547065   -3.29820668118404
C         0.38526399613111    1.16010890656186   -3.29791055069353
C         1.23104548548615   -0.00375933110329   -3.29551184332338
C         0.38967997225144   -1.17080543236277   -3.29489044588385
Cl       -1.95459630749501   -0.00675115019208    5.23292556167800
Cl       -3.13149024278191    3.63303283618776    2.88279933974108
Cl       -0.36956870195691   -4.79182661109996   -2.89321627519243
