63
 energy: -142.123633908185 gnorm: 0.000143530963 xtb: 6.4.1 (a3dbbd7)
C        -1.29579142624856    0.00005924856917    3.54470378763260
C        -0.37284293830603   -1.17695260047209    3.29275698846724
C         0.97931341643986   -0.71988756986062    3.25910583038410
C         0.97931404004741    0.71995167740088    3.25909793003045
C        -0.37284083088899    1.17703174187828    3.29274976884237
C         2.33990447017150   -2.57863385574826    0.57207284168819
C         3.18985277036469   -1.41451729135824    0.57170732723410
C         2.95346247893812   -0.69356513018490    1.79581615339677
C         1.95331200691743   -1.41077272570227    2.54618432357580
C         1.57799186355122   -2.56925236743012    1.79522374048471
C         3.18992580127068    1.41460522167069    0.57177776482438
C         2.33999165127321    2.57873107831304    0.57216916892448
C         1.57804750195815    2.56931059441529    1.79528660983415
C         1.95334792117849    1.41081690545371    2.54621441560177
C         2.95355353590045    0.69361577755488    1.79588733378221
C        -0.36292726579845    3.43375881946395    0.57529443228031
C        -1.72806729350906    3.02999093053686    0.57675831627620
C        -2.09131555305142    2.46678794814172    1.93827018334282
C        -0.72987726421070    2.28611892615894    2.57511318555707
C         0.24911991472924    2.97868971131845    1.79900604548428
C        -3.35720670468848    0.72199121501638    0.57715158066108
C        -3.35721483264109   -0.72159644199217    0.57707592728088
C        -2.74922105012697   -1.14430158899429    1.79695061317862
C        -2.36518410007515    0.00008447078054    2.50948493273001
C        -2.74915225038324    1.14457950006588    1.79689993984811
C        -1.72812286945826   -3.02963380444256    0.57662168042127
C        -0.36302763768181   -3.43359820955849    0.57516446982890
C         0.24904083489657   -2.97858539566202    1.79889555331202
C        -0.72990839565349   -2.28590678816317    2.57494102559616
C        -2.09134409916850   -2.46649241154786    1.93814064415146
C        -0.23203201363836   -3.01177766131238   -1.82964855344830
C         0.75814989673452   -2.29110354944870   -2.59114658774430
C         1.98389348635317   -2.28918342448580   -1.83465400671167
C         1.74804606218585   -3.00682529997640   -0.60736497927341
C         0.37696606191837   -3.44914884562423   -0.60626320594876
C         2.80157403784860   -1.16560630341388   -1.83589544789819
C         2.42082464340286    0.00012550492281   -2.59165194643893
C         2.80162685599193    1.16582029686806   -1.83585652654144
C         3.41655132640281    0.72021662762588   -0.61106051194953
C         3.41651722358115   -0.72008050545099   -0.61109500807849
C         1.98400245103768    2.28943552874338   -1.83458507203439
C         0.75824593080240    2.29141511164070   -2.59106798900262
C        -0.23190364590048    3.01207773948102   -1.82950468883263
C         0.37710638848298    3.44935449386097   -0.60611431669796
C         1.74816436777831    3.00700766129671   -0.60725054031888
C        -1.55168993209696    2.58100803319717   -1.81865381919133
C        -1.93584957223403    1.41360683493321   -2.57743727913255
C        -2.93291570256327    0.69924902412451   -1.82658107666069
C        -3.16598587112856    1.41789470887594   -0.60604039422415
C        -2.30483476944580    2.58987244676683   -0.59469597238743
C        -2.93301040475857   -0.69885456271809   -1.82666660982080
C        -1.93596482750505   -1.41320431658956   -2.57752646239693
C        -1.55182175820767   -2.58067359241596   -1.81879815191951
C        -2.30489899788152   -2.58956128040490   -0.59481816347685
C        -3.16597617353022   -1.41748023048896   -0.60601919375309
C        -0.98245983187416   -0.72080185165676   -3.31158017791457
C        -0.98241132647686    0.72119453437113   -3.31152335947557
C         0.38876278664060    1.16570220613360   -3.31501245244421
C         1.23487924992262    0.00015643241379   -3.31643211021003
C         0.38870259839146   -1.16535289437385   -3.31506402051134
Cl       -1.96899006916008    0.00001081806982    5.22016692934706
Cl       -3.13047987898165    3.62994863116965    2.87384712199149
Cl       -3.13041729335773   -3.63004826732506    2.87372959972839
