63
 energy: -142.089653829588 gnorm: 0.000134813809 xtb: 6.4.1 (a3dbbd7)
C        -1.29593627709988   -0.01072977382357    3.53755820013512
C        -0.36462724054758   -1.18340048443576    3.31112618431015
C         0.98861441578120   -0.72374858371585    3.28644130584202
C         0.98179605385642    0.71697544798411    3.28526133584130
C        -0.37042484598403    1.16572451010342    3.30691096914905
C         2.34173052156112   -2.57720614833201    0.59605728596796
C         3.19113235586521   -1.41038102235266    0.59205349459964
C         2.95701297121456   -0.69001932896180    1.81765918651364
C         1.96397849120678   -1.41490285924380    2.57357474871047
C         1.59380898322349   -2.57740915389452    1.81972163950188
C         3.19445417899547    1.42057632071779    0.59202993631515
C         2.34476149468212    2.58293335141360    0.59157068437904
C         1.58220538477690    2.57654415790029    1.81548443642319
C         1.95346855254101    1.41633863011084    2.56586345941389
C         2.95271089334721    0.69692849889229    1.81719681225760
C        -0.35926994188786    3.44965495978040    0.59087391170970
C        -1.73560629574117    2.99241185433149    0.57914787222810
C        -1.96976563221630    2.27519903295038    1.80148006773875
C        -0.73341595288802    2.26409050555379    2.56240207912031
C         0.25045681915357    2.99013937934042    1.80234513600548
C        -3.39914290747545    0.72948124659313    0.58042821406995
C        -3.38922159511683   -0.70769324133321    0.57876990250683
C        -2.76657267733906   -1.14693595072890    1.81780587647969
C        -2.41562326700019   -0.02097713484455    2.55644950482092
C        -2.77763921515817    1.15061291312715    1.80408567547477
C        -1.73717287033775   -3.01559117513379    0.61880440668450
C        -0.34389862565496   -3.44673037671888    0.59470112596997
C         0.26874483869155   -3.00036689159425    1.81519856807860
C        -0.72148762337795   -2.28493049760913    2.57135834055268
C        -1.96446553634320   -2.31624241773795    1.80866560144117
C        -0.25137016492819   -3.22474688435275   -1.93070366040757
C         0.75266300949007   -2.28989788072486   -2.57240940098346
C         1.95457159730303   -2.27615482530624   -1.80718338279657
C         1.72725522011688   -2.99646842943621   -0.58031357658078
C         0.37761466136086   -3.46719766751885   -0.57447399710389
C         2.78968924189067   -1.15662508383164   -1.81171769371202
C         2.41910644254123    0.00148627303038   -2.56566024804030
C         2.80407444785704    1.16967634308334   -1.81291297111800
C         3.42015292930549    0.72612595636732   -0.58949089568713
C         3.41229302960966   -0.71716062022979   -0.58869995455291
C         1.98269309348369    2.28775054542368   -1.80716794653910
C         0.73954163537720    2.28869441542813   -2.55354252564365
C        -0.22634322429353    3.02335599526798   -1.81987124115331
C         0.36633238795957    3.43701953544540   -0.59980894137678
C         1.75001914758949    3.00366200174262   -0.58913198612963
C        -1.68489681349092    2.76685605556072   -1.94772918072225
C        -1.96204039157030    1.42724289747275   -2.59170707390486
C        -2.92835256107230    0.71233272084546   -1.82495180448537
C        -3.16258067340982    1.43302815389635   -0.59877689242425
C        -2.34310820717966    2.59974639410215   -0.59683652708623
C        -2.94074297724838   -0.68096470119916   -1.81927454560171
C        -1.94534787445876   -1.41026639742709   -2.55293797756502
C        -1.58482452144333   -2.57725766736637   -1.79275214669245
C        -2.30439918123406   -2.56900459695578   -0.60166776421450
C        -3.16532871376830   -1.39658638050171   -0.59329774077461
C        -0.99812426998804   -0.71444162386250   -3.28502557238741
C        -0.99771051973840    0.72198428454696   -3.28370380981982
C         0.38348037279091    1.16428870118553   -3.29739416613083
C         1.22125864722030    0.00308236485391   -3.27976472695997
C         0.38149035479528   -1.16635974715898   -3.27408854829042
Cl       -1.93114251785026   -0.00908081476501    5.25055513772516
Cl       -0.37920749796809   -4.78424070586325   -2.87381546434458
Cl       -2.48558777559677    4.12348472962408   -2.89804893865925
